                                  MODFLOW-USG      
      U.S. GEOLOGICAL SURVEY MODULAR FINITE-DIFFERENCE GROUNDWATER FLOW MODEL
                            VERSION 1.5.00 02/27/2019

 LIST FILE: freyberg.usg.list
                         UNIT    2

 OPENING freyberg.usg.disu
 FILE TYPE:DISU   UNIT   11   STATUS:OLD    
 FORMAT:FORMATTED              ACCESS:SEQUENTIAL          

 OPENING freyberg.usg.bas
 FILE TYPE:BAS6   UNIT   13   STATUS:OLD    
 FORMAT:FORMATTED              ACCESS:SEQUENTIAL          

 OPENING freyberg.usg.lpf
 FILE TYPE:LPF   UNIT   15   STATUS:OLD    
 FORMAT:FORMATTED              ACCESS:SEQUENTIAL          

 OPENING freyberg.usg.sms
 FILE TYPE:SMS   UNIT   32   STATUS:OLD    
 FORMAT:FORMATTED              ACCESS:SEQUENTIAL          

 OPENING freyberg.usg.oc
 FILE TYPE:OC   UNIT   14   STATUS:OLD    
 FORMAT:FORMATTED              ACCESS:SEQUENTIAL          

 OPENING freyberg.usg.wel
 FILE TYPE:WEL   UNIT   20   STATUS:OLD    
 FORMAT:FORMATTED              ACCESS:SEQUENTIAL          

 OPENING freyberg.usg.sfr
 FILE TYPE:SFR   UNIT   28   STATUS:OLD    
 FORMAT:FORMATTED              ACCESS:SEQUENTIAL          

 OPENING freyberg.usg.gnc
 FILE TYPE:GNC   UNIT   29   STATUS:OLD    
 FORMAT:FORMATTED              ACCESS:SEQUENTIAL          

 OPENING freyberg.usg.ghb
 FILE TYPE:GHB   UNIT   30   STATUS:OLD    
 FORMAT:FORMATTED              ACCESS:SEQUENTIAL          

 OPENING freyberg.usg.rch
 FILE TYPE:RCH   UNIT   31   STATUS:OLD    
 FORMAT:FORMATTED              ACCESS:SEQUENTIAL          

 OPENING freyberg.usg.cbc
 FILE TYPE:DATA(BINARY)   UNIT   50   STATUS:REPLACE
 FORMAT:BINARY                 ACCESS:SEQUENTIAL          

 OPENING freyberg.usg.hds
 FILE TYPE:DATA(BINARY)   UNIT   51   STATUS:REPLACE
 FORMAT:BINARY                 ACCESS:SEQUENTIAL          

 OPENING freyberg.usg.sfr.out
 FILE TYPE:DATA   UNIT   60   STATUS:UNKNOWN
 FORMAT:FORMATTED              ACCESS:SEQUENTIAL          

 BAS -- BASIC PACKAGE-USG      1.5.00 02/27/2019                        INPUT READ FROM UNIT   13
 
 # BAS6 package for  MODFLOW-USG, generated by Flopy.                            
 THE FREE FORMAT OPTION HAS BEEN SELECTED
 THE UNSTRUCTURED GRID OPTION HAS BEEN SELECTED

 DIS -- UNSTRUCTURED GRID DISCRETIZATION PACKAGE, VERSION 1 : 5/17/2010 - INPUT READ FROM UNIT   11
 # DISU package for  MODFLOW-USG, generated by Flopy.
       4497 NODES         3 NLAY     29255 NJAG  VERT. SUBDISCRETIZATION INDEX, IVSD =  0
 INDEX FOR INPUT OF UNSTRUCTURED, FINITE-VOLUME CONNECTIVITY INFORMATION, IDSYMRD =   0
   25 STRESS PERIOD(S) IN SIMULATION
 MODEL TIME UNIT IS DAYS
 MODEL LENGTH UNIT IS FEET
  Confining bed flag for each layer:
   0   0   0

 GNCn -- GHOST NODE CORRECTION PACKAGE WITH n ADJACENT CONTRIBUTING NODES VERSION 1, 6/18/2011.
   INPUT READ FROM UNIT   29
     0 PARAMETERS DEFINE A MAXIMUM OF      0 GHOST NODE CORRECTION LOCATIONS
   2280 GHOST NODE CORRECTION LOCATIONS NOT DEFINED BY PARAMETERS
  MAXIMUM NUMBER OF ADJACENT CONTRIBUTING NODES =      2
  FLAG INDICATING SECOND-ORDER CORRECTION ON TRANSMISSIVITY TERM FOR UNCONFINED FLOW, I2Kn =      0
  FLAG FOR SYMMETRIC IMPLEMENTATION OF GNCn, ISYMGNCn =      1
  FLAG FOR INPUT OF SATURATED CONDUCTANCES, IFLALPHAn =      0


     0 GNC parameters

   2280 GHOST NODES NOT DEFINED BY PARAMETERS

 GNC-NODE    NODEn   NODEm    NODESj FACTORSj    
 ---------------------------------------------------
       1         15         21    47.0000        47.0000       0.125000       0.125000    
       2         16         19    21.0000        21.0000       0.125000       0.125000    
       3         26         20    28.0000        28.0000       0.125000       0.125000    
       4         21         22    16.0000        16.0000       0.125000       0.125000    
       5         28         23    26.0000        26.0000       0.125000       0.125000    
       6         21         24    48.0000        48.0000       0.125000       0.125000    
       7         28         25    58.0000        58.0000       0.125000       0.125000    
       8         30         29    62.0000        62.0000       0.125000       0.125000    
       9         47         48    15.0000        15.0000       0.125000       0.125000    
      10         47         53    79.0000        79.0000       0.125000       0.125000    
      11         48         49    21.0000        21.0000       0.125000       0.125000    
      12         58         50    28.0000        28.0000       0.125000       0.125000    
      13         48         51    53.0000        53.0000       0.125000       0.125000    
      14         58         52    60.0000        60.0000       0.125000       0.125000    
      15         53         54    48.0000        48.0000       0.125000       0.125000    
      16         60         55    58.0000        58.0000       0.125000       0.125000    
      17         53         56    80.0000        80.0000       0.125000       0.125000    
      18         60         57    90.0000        90.0000       0.125000       0.125000    
      19         62         59    30.0000        30.0000       0.125000       0.125000    
      20         62         61    94.0000        94.0000       0.125000       0.125000    
      21         79         80    47.0000        47.0000       0.125000       0.125000    
      22         79         85    111.000        111.000       0.125000       0.125000    
      23         80         81    53.0000        53.0000       0.125000       0.125000    
      24         90         82    60.0000        60.0000       0.125000       0.125000    
      25         80         83    85.0000        85.0000       0.125000       0.125000    
      26         90         84    92.0000        92.0000       0.125000       0.125000    
      27         85         86    80.0000        80.0000       0.125000       0.125000    
      28         92         87    90.0000        90.0000       0.125000       0.125000    
      29         85         88    112.000        112.000       0.125000       0.125000    
      30         92         89    122.000        122.000       0.125000       0.125000    
      31         94         91    62.0000        62.0000       0.125000       0.125000    
      32         94         93    126.000        126.000       0.125000       0.125000    
      33        111        112    79.0000        79.0000       0.125000       0.125000    
      34        111        117    143.000        143.000       0.125000       0.125000    
      35        112        113    85.0000        85.0000       0.125000       0.125000    
      36        122        114    92.0000        92.0000       0.125000       0.125000    
      37        112        115    117.000        117.000       0.125000       0.125000    
      38        122        116    124.000        124.000       0.125000       0.125000    
      39        117        118    112.000        112.000       0.125000       0.125000    
      40        124        119    122.000        122.000       0.125000       0.125000    
      41        117        120    144.000        144.000       0.125000       0.125000    
      42        124        121    154.000        154.000       0.125000       0.125000    
      43        126        123    94.0000        94.0000       0.125000       0.125000    
      44        126        125    158.000        158.000       0.125000       0.125000    
      45        143        144    111.000        111.000       0.125000       0.125000    
      46        143        149    175.000        175.000       0.125000       0.125000    
      47        144        145    117.000        117.000       0.125000       0.125000    
      48        154        146    124.000        124.000       0.125000       0.125000    
      49        144        147    149.000        149.000       0.125000       0.125000    
      50        154        148    156.000        156.000       0.125000       0.125000    
      51        149        150    144.000        144.000       0.125000       0.125000    
      52        156        151    154.000        154.000       0.125000       0.125000    
      53        149        152    176.000        176.000       0.125000       0.125000    
      54        156        153    186.000        186.000       0.125000       0.125000    
      55        158        155    126.000        126.000       0.125000       0.125000    
      56        158        157    190.000        190.000       0.125000       0.125000    
      57        175        176    143.000        143.000       0.125000       0.125000    
      58        175        181    207.000        207.000       0.125000       0.125000    
      59        176        177    149.000        149.000       0.125000       0.125000    
      60        186        178    156.000        156.000       0.125000       0.125000    
      61        176        179    181.000        181.000       0.125000       0.125000    
      62        186        180    188.000        188.000       0.125000       0.125000    
      63        181        182    176.000        176.000       0.125000       0.125000    
      64        188        183    186.000        186.000       0.125000       0.125000    
      65        181        184    208.000        208.000       0.125000       0.125000    
      66        188        185    218.000        218.000       0.125000       0.125000    
      67        190        187    158.000        158.000       0.125000       0.125000    
      68        190        189    222.000        222.000       0.125000       0.125000    
      69        207        208    175.000        175.000       0.125000       0.125000    
      70        207        213    239.000        239.000       0.125000       0.125000    
      71        208        209    181.000        181.000       0.125000       0.125000    
      72        218        210    188.000        188.000       0.125000       0.125000    
      73        208        211    213.000        213.000       0.125000       0.125000    
      74        218        212    220.000        220.000       0.125000       0.125000    
      75        213        214    208.000        208.000       0.125000       0.125000    
      76        220        215    218.000        218.000       0.125000       0.125000    
      77        213        216    240.000        240.000       0.125000       0.125000    
      78        220        217    250.000        250.000       0.125000       0.125000    
      79        222        219    190.000        190.000       0.125000       0.125000    
      80        222        221    254.000        254.000       0.125000       0.125000    
      81        239        240    207.000        207.000       0.125000       0.125000    
      82        239        245    271.000        271.000       0.125000       0.125000    
      83        240        241    213.000        213.000       0.125000       0.125000    
      84        250        242    220.000        220.000       0.125000       0.125000    
      85        240        243    245.000        245.000       0.125000       0.125000    
      86        250        244    252.000        252.000       0.125000       0.125000    
      87        245        246    240.000        240.000       0.125000       0.125000    
      88        252        247    250.000        250.000       0.125000       0.125000    
      89        245        248    272.000        272.000       0.125000       0.125000    
      90        252        249    282.000        282.000       0.125000       0.125000    
      91        254        251    222.000        222.000       0.125000       0.125000    
      92        254        253    286.000        286.000       0.125000       0.125000    
      93        271        272    239.000        239.000       0.125000       0.125000    
      94        271        277    303.000        303.000       0.125000       0.125000    
      95        272        273    245.000        245.000       0.125000       0.125000    
      96        282        274    252.000        252.000       0.125000       0.125000    
      97        272        275    277.000        277.000       0.125000       0.125000    
      98        282        276    284.000        284.000       0.125000       0.125000    
      99        277        278    272.000        272.000       0.125000       0.125000    
     100        284        279    282.000        282.000       0.125000       0.125000    
     101        277        280    304.000        304.000       0.125000       0.125000    
     102        284        281    314.000        315.000       0.166667       0.166667    
     103        286        283    254.000        254.000       0.125000       0.125000    
     104        286        285    342.000        343.000       0.166667       0.166667    
     105        303        304    271.000        271.000       0.125000       0.125000    
     106        303        309    365.000        365.000       0.125000       0.125000    
     107        304        305    277.000        277.000       0.125000       0.125000    
     108        304        307    309.000        309.000       0.125000       0.125000    
     109        309        310    304.000        304.000       0.125000       0.125000    
     110        309        312    366.000        366.000       0.125000       0.125000    
     111        284        314    279.000        281.000       0.166667       0.166667    
     112        284        315    285.000        285.000       0.125000       0.125000    
     113        315        317    314.000        314.000       0.125000       0.125000    
     114        316        317    314.000        314.000       0.125000       0.125000    
     115        315        318    321.000        321.000       0.125000       0.125000    
     116        316        319    328.000        328.000       0.125000       0.125000    
     117        285        321    284.000        284.000       0.125000       0.125000    
     118        285        322    286.000        286.000       8.333330E-02   8.333330E-02
     119        342        322    286.000        286.000       8.333330E-02   8.333330E-02
     120        342        327    344.000        344.000       0.125000       0.125000    
     121        321        323    315.000        315.000       0.125000       0.125000    
     122        321        324    322.000        322.000       0.125000       0.125000    
     123        327        324    322.000        322.000       0.125000       0.125000    
     124        327        326    339.000        339.000       0.125000       0.125000    
     125        376        333    368.000        370.000       0.166667       0.166667    
     126        376        334    377.000        377.000       0.125000       0.125000    
     127        328        329    316.000        316.000       0.125000       0.125000    
     128        334        331    333.000        333.000       0.125000       0.125000    
     129        328        331    333.000        333.000       0.125000       0.125000    
     130        334        332    340.000        340.000       0.125000       0.125000    
     131        344        339    342.000        342.000       0.125000       0.125000    
     132        377        340    376.000        376.000       0.125000       0.125000    
     133        344        341    380.000        380.000       8.333330E-02   8.333330E-02
     134        377        341    380.000        380.000       8.333330E-02   8.333330E-02
     135        339        336    327.000        327.000       0.125000       0.125000    
     136        340        337    334.000        334.000       0.125000       0.125000    
     137        339        338    341.000        341.000       0.125000       0.125000    
     138        340        338    341.000        341.000       0.125000       0.125000    
     139        286        342    283.000        285.000       0.166667       0.166667    
     140        286        343    287.000        287.000       0.125000       0.125000    
     141        346        343    287.000        287.000       0.125000       0.125000    
     142        380        344    377.000        379.000       0.166667       0.166667    
     143        346        345    381.000        381.000       0.125000       0.125000    
     144        380        345    381.000        381.000       0.125000       0.125000    
     145        302        361    301.000        301.000       0.125000       0.125000    
     146        360        361    301.000        301.000       0.125000       0.125000    
     147        302        362    303.000        303.000       0.125000       0.125000    
     148        365        362    303.000        303.000       0.125000       0.125000    
     149        360        363    395.000        396.000       0.166667       0.166667    
     150        365        364    427.000        428.000       0.166667       0.166667    
     151        365        366    303.000        303.000       0.125000       0.125000    
     152        365        371    427.000        428.000       0.166667       0.166667    
     153        366        367    309.000        309.000       0.125000       0.125000    
     154        376        368    334.000        333.000       0.166667       0.166667    
     155        366        369    371.000        371.000       0.125000       0.125000    
     156        376        370    378.000        378.000       0.125000       0.125000    
     157        371        372    366.000        366.000       0.125000       0.125000    
     158        378        373    376.000        376.000       0.125000       0.125000    
     159        371        374    431.000        431.000       0.125000       0.125000    
     160        378        375    441.000        441.000       0.125000       0.125000    
     161        380        377    345.000        344.000       0.166667       0.166667    
     162        380        379    445.000        445.000       0.125000       0.125000    
     163        360        395    359.000        359.000       0.125000       0.125000    
     164        394        395    359.000        359.000       0.125000       0.125000    
     165        360        396    363.000        361.000       0.166667       0.166667    
     166        460        397    459.000        459.000       0.125000       0.125000    
     167        394        397    459.000        459.000       0.125000       0.125000    
     168        460        398    463.000        461.000       0.166667       0.166667    
     169        363        399    360.000        360.000       8.333330E-02   8.333330E-02
     170        396        399    360.000        360.000       8.333330E-02   8.333330E-02
     171        363        400    364.000        364.000       0.125000       0.125000    
     172        396        401    398.000        398.000       0.125000       0.125000    
     173        400        402    399.000        399.000       0.125000       0.125000    
     174        401        402    399.000        399.000       0.125000       0.125000    
     175        400        403    406.000        406.000       0.125000       0.125000    
     176        401        404    413.000        413.000       0.125000       0.125000    
     177        364        406    363.000        363.000       0.125000       0.125000    
     178        364        407    365.000        365.000       8.333330E-02   8.333330E-02
     179        427        407    365.000        365.000       8.333330E-02   8.333330E-02
     180        427        412    429.000        429.000       0.125000       0.125000    
     181        406        408    400.000        400.000       0.125000       0.125000    
     182        406        409    407.000        407.000       0.125000       0.125000    
     183        412        409    407.000        407.000       0.125000       0.125000    
     184        412        411    424.000        424.000       0.125000       0.125000    
     185        398        413    396.000        396.000       0.125000       0.125000    
     186        461        418    460.000        460.000       8.333330E-02   8.333330E-02
     187        398        418    460.000        460.000       8.333330E-02   8.333330E-02
     188        461        419    462.000        462.000       0.125000       0.125000    
     189        413        414    401.000        401.000       0.125000       0.125000    
     190        419        416    418.000        418.000       0.125000       0.125000    
     191        413        416    418.000        418.000       0.125000       0.125000    
     192        419        417    425.000        425.000       0.125000       0.125000    
     193        429        424    427.000        427.000       0.125000       0.125000    
     194        462        425    461.000        461.000       0.125000       0.125000    
     195        429        426    465.000        465.000       8.333330E-02   8.333330E-02
     196        462        426    465.000        465.000       8.333330E-02   8.333330E-02
     197        424        421    412.000        412.000       0.125000       0.125000    
     198        425        422    419.000        419.000       0.125000       0.125000    
     199        424        423    426.000        426.000       0.125000       0.125000    
     200        425        423    426.000        426.000       0.125000       0.125000    
     201        365        427    362.000        364.000       0.166667       0.166667    
     202        365        428    371.000        366.000       0.166667       0.166667    
     203        465        429    462.000        464.000       0.166667       0.166667    
     204        465        430    471.000        466.000       0.166667       0.166667    
     205        431        432    371.000        371.000       0.125000       0.125000    
     206        441        433    378.000        378.000       0.125000       0.125000    
     207        431        434    436.000        436.000       0.125000       0.125000    
     208        441        435    443.000        443.000       0.125000       0.125000    
     209        436        437    431.000        431.000       0.125000       0.125000    
     210        443        438    441.000        441.000       0.125000       0.125000    
     211        436        439    466.000        466.000       0.125000       0.125000    
     212        443        440    476.000        476.000       0.125000       0.125000    
     213        445        442    380.000        380.000       0.125000       0.125000    
     214        445        444    480.000        480.000       0.125000       0.125000    
     215        460        461    398.000        397.000       0.166667       0.166667    
     216        465        462    430.000        429.000       0.166667       0.166667    
     217        496        463    495.000        495.000       0.125000       0.125000    
     218        460        463    495.000        495.000       0.125000       0.125000    
     219        465        464    497.000        497.000       0.125000       0.125000    
     220        496        464    497.000        497.000       0.125000       0.125000    
     221        465        466    430.000        429.000       0.166667       0.166667    
     222        465        471    497.000        497.000       0.125000       0.125000    
     223        466        467    436.000        436.000       0.125000       0.125000    
     224        476        468    443.000        443.000       0.125000       0.125000    
     225        466        469    471.000        471.000       0.125000       0.125000    
     226        476        470    478.000        478.000       0.125000       0.125000    
     227        471        472    466.000        466.000       0.125000       0.125000    
     228        478        473    476.000        476.000       0.125000       0.125000    
     229        471        474    498.000        498.000       0.125000       0.125000    
     230        478        475    508.000        508.000       0.125000       0.125000    
     231        480        477    445.000        445.000       0.125000       0.125000    
     232        480        479    512.000        512.000       0.125000       0.125000    
     233        497        498    465.000        465.000       0.125000       0.125000    
     234        497        503    529.000        529.000       0.125000       0.125000    
     235        498        499    471.000        471.000       0.125000       0.125000    
     236        508        500    478.000        478.000       0.125000       0.125000    
     237        498        501    503.000        503.000       0.125000       0.125000    
     238        508        502    510.000        510.000       0.125000       0.125000    
     239        503        504    498.000        498.000       0.125000       0.125000    
     240        510        505    508.000        508.000       0.125000       0.125000    
     241        503        506    530.000        530.000       0.125000       0.125000    
     242        510        507    540.000        540.000       0.125000       0.125000    
     243        512        509    480.000        480.000       0.125000       0.125000    
     244        512        511    544.000        544.000       0.125000       0.125000    
     245        529        530    497.000        497.000       0.125000       0.125000    
     246        529        535    561.000        561.000       0.125000       0.125000    
     247        530        531    503.000        503.000       0.125000       0.125000    
     248        540        532    510.000        510.000       0.125000       0.125000    
     249        530        533    535.000        535.000       0.125000       0.125000    
     250        540        534    542.000        542.000       0.125000       0.125000    
     251        535        536    530.000        530.000       0.125000       0.125000    
     252        542        537    540.000        540.000       0.125000       0.125000    
     253        535        538    562.000        562.000       0.125000       0.125000    
     254        542        539    572.000        572.000       0.125000       0.125000    
     255        544        541    512.000        512.000       0.125000       0.125000    
     256        544        543    576.000        576.000       0.125000       0.125000    
     257        561        562    529.000        529.000       0.125000       0.125000    
     258        561        567    593.000        593.000       0.125000       0.125000    
     259        562        563    535.000        535.000       0.125000       0.125000    
     260        572        564    542.000        542.000       0.125000       0.125000    
     261        562        565    567.000        567.000       0.125000       0.125000    
     262        572        566    574.000        574.000       0.125000       0.125000    
     263        567        568    562.000        562.000       0.125000       0.125000    
     264        574        569    572.000        572.000       0.125000       0.125000    
     265        567        570    594.000        594.000       0.125000       0.125000    
     266        574        571    604.000        604.000       0.125000       0.125000    
     267        576        573    544.000        544.000       0.125000       0.125000    
     268        576        575    608.000        608.000       0.125000       0.125000    
     269        593        594    561.000        561.000       0.125000       0.125000    
     270        593        599    625.000        625.000       0.125000       0.125000    
     271        594        595    567.000        567.000       0.125000       0.125000    
     272        604        596    574.000        574.000       0.125000       0.125000    
     273        594        597    599.000        599.000       0.125000       0.125000    
     274        604        598    606.000        606.000       0.125000       0.125000    
     275        599        600    594.000        594.000       0.125000       0.125000    
     276        606        601    604.000        604.000       0.125000       0.125000    
     277        599        602    626.000        626.000       0.125000       0.125000    
     278        606        603    636.000        636.000       0.125000       0.125000    
     279        608        605    576.000        576.000       0.125000       0.125000    
     280        608        607    640.000        640.000       0.125000       0.125000    
     281        625        626    593.000        593.000       0.125000       0.125000    
     282        625        631    657.000        657.000       0.125000       0.125000    
     283        626        627    599.000        599.000       0.125000       0.125000    
     284        636        628    606.000        606.000       0.125000       0.125000    
     285        626        629    631.000        631.000       0.125000       0.125000    
     286        636        630    638.000        638.000       0.125000       0.125000    
     287        631        632    626.000        626.000       0.125000       0.125000    
     288        638        633    636.000        636.000       0.125000       0.125000    
     289        631        634    658.000        658.000       0.125000       0.125000    
     290        638        635    668.000        668.000       0.125000       0.125000    
     291        640        637    608.000        608.000       0.125000       0.125000    
     292        640        639    672.000        672.000       0.125000       0.125000    
     293        657        658    625.000        625.000       0.125000       0.125000    
     294        657        663    689.000        690.000       0.166667       0.166667    
     295        658        659    631.000        631.000       0.125000       0.125000    
     296        668        660    638.000        638.000       0.125000       0.125000    
     297        658        661    663.000        663.000       0.125000       0.125000    
     298        668        662    670.000        670.000       0.125000       0.125000    
     299        663        664    658.000        658.000       0.125000       0.125000    
     300        670        665    668.000        668.000       0.125000       0.125000    
     301        663        666    693.000        693.000       0.125000       0.125000    
     302        670        667    703.000        703.000       0.125000       0.125000    
     303        672        669    640.000        640.000       0.125000       0.125000    
     304        672        671    707.000        707.000       0.125000       0.125000    
     305        657        689    656.000        656.000       0.125000       0.125000    
     306        688        689    656.000        656.000       0.125000       0.125000    
     307        657        690    663.000        658.000       0.166667       0.166667    
     308        688        691    723.000        724.000       0.166667       0.166667    
     309        693        694    663.000        663.000       0.125000       0.125000    
     310        703        695    670.000        670.000       0.125000       0.125000    
     311        693        696    698.000        698.000       0.125000       0.125000    
     312        703        697    705.000        705.000       0.125000       0.125000    
     313        698        699    693.000        693.000       0.125000       0.125000    
     314        705        700    703.000        703.000       0.125000       0.125000    
     315        698        701    755.000        755.000       0.125000       0.125000    
     316        705        702    765.000        765.000       0.125000       0.125000    
     317        707        704    672.000        672.000       0.125000       0.125000    
     318        707        706    769.000        769.000       0.125000       0.125000    
     319        688        723    687.000        687.000       0.125000       0.125000    
     320        722        723    687.000        687.000       0.125000       0.125000    
     321        688        724    691.000        689.000       0.166667       0.166667    
     322        785        725    784.000        784.000       0.125000       0.125000    
     323        722        725    784.000        784.000       0.125000       0.125000    
     324        785        726    788.000        786.000       0.166667       0.166667    
     325        691        727    688.000        688.000       8.333330E-02   8.333330E-02
     326        724        727    688.000        688.000       8.333330E-02   8.333330E-02
     327        691        728    692.000        692.000       0.125000       0.125000    
     328        724        729    726.000        726.000       0.125000       0.125000    
     329        728        730    727.000        727.000       0.125000       0.125000    
     330        729        730    727.000        727.000       0.125000       0.125000    
     331        728        731    734.000        734.000       0.125000       0.125000    
     332        729        732    741.000        741.000       0.125000       0.125000    
     333        692        734    691.000        691.000       0.125000       0.125000    
     334        692        735    698.000        698.000       0.125000       0.125000    
     335        755        735    698.000        698.000       0.125000       0.125000    
     336        755        740    760.000        760.000       0.125000       0.125000    
     337        734        736    728.000        728.000       0.125000       0.125000    
     338        734        737    735.000        735.000       0.125000       0.125000    
     339        740        737    735.000        735.000       0.125000       0.125000    
     340        740        739    752.000        752.000       0.125000       0.125000    
     341        726        741    724.000        724.000       0.125000       0.125000    
     342        786        746    785.000        785.000       8.333330E-02   8.333330E-02
     343        726        746    785.000        785.000       8.333330E-02   8.333330E-02
     344        786        747    787.000        787.000       0.125000       0.125000    
     345        741        742    729.000        729.000       0.125000       0.125000    
     346        747        744    746.000        746.000       0.125000       0.125000    
     347        741        744    746.000        746.000       0.125000       0.125000    
     348        747        745    753.000        753.000       0.125000       0.125000    
     349        760        752    755.000        755.000       0.125000       0.125000    
     350        787        753    786.000        786.000       0.125000       0.125000    
     351        760        754    790.000        790.000       0.125000       0.125000    
     352        787        754    790.000        790.000       0.125000       0.125000    
     353        752        749    740.000        740.000       0.125000       0.125000    
     354        753        750    747.000        747.000       0.125000       0.125000    
     355        752        751    754.000        754.000       0.125000       0.125000    
     356        753        751    754.000        754.000       0.125000       0.125000    
     357        755        756    698.000        698.000       0.125000       0.125000    
     358        765        757    705.000        705.000       0.125000       0.125000    
     359        755        758    760.000        760.000       0.125000       0.125000    
     360        765        759    767.000        767.000       0.125000       0.125000    
     361        760        761    755.000        755.000       0.125000       0.125000    
     362        767        762    765.000        765.000       0.125000       0.125000    
     363        760        763    790.000        790.000       0.125000       0.125000    
     364        767        764    800.000        800.000       0.125000       0.125000    
     365        769        766    707.000        707.000       0.125000       0.125000    
     366        769        768    804.000        804.000       0.125000       0.125000    
     367        785        786    726.000        725.000       0.166667       0.166667    
     368        821        788    820.000        820.000       0.125000       0.125000    
     369        785        788    820.000        820.000       0.125000       0.125000    
     370        821        789    827.000        822.000       0.166667       0.166667    
     371        790        791    760.000        760.000       0.125000       0.125000    
     372        800        792    767.000        767.000       0.125000       0.125000    
     373        790        793    795.000        795.000       0.125000       0.125000    
     374        800        794    802.000        802.000       0.125000       0.125000    
     375        795        796    790.000        790.000       0.125000       0.125000    
     376        802        797    800.000        800.000       0.125000       0.125000    
     377        795        798    822.000        822.000       0.125000       0.125000    
     378        802        799    832.000        832.000       0.125000       0.125000    
     379        804        801    769.000        769.000       0.125000       0.125000    
     380        804        803    836.000        836.000       0.125000       0.125000    
     381        821        822    789.000        788.000       0.166667       0.166667    
     382        821        827    853.000        853.000       0.125000       0.125000    
     383        822        823    795.000        795.000       0.125000       0.125000    
     384        832        824    802.000        802.000       0.125000       0.125000    
     385        822        825    827.000        827.000       0.125000       0.125000    
     386        832        826    834.000        834.000       0.125000       0.125000    
     387        827        828    822.000        822.000       0.125000       0.125000    
     388        834        829    832.000        832.000       0.125000       0.125000    
     389        827        830    854.000        854.000       0.125000       0.125000    
     390        834        831    864.000        864.000       0.125000       0.125000    
     391        836        833    804.000        804.000       0.125000       0.125000    
     392        836        835    868.000        868.000       0.125000       0.125000    
     393        853        854    821.000        821.000       0.125000       0.125000    
     394        853        859    885.000        885.000       0.125000       0.125000    
     395        854        855    827.000        827.000       0.125000       0.125000    
     396        864        856    834.000        834.000       0.125000       0.125000    
     397        854        857    859.000        859.000       0.125000       0.125000    
     398        864        858    866.000        866.000       0.125000       0.125000    
     399        859        860    854.000        854.000       0.125000       0.125000    
     400        866        861    864.000        864.000       0.125000       0.125000    
     401        859        862    886.000        886.000       0.125000       0.125000    
     402        866        863    896.000        896.000       0.125000       0.125000    
     403        868        865    836.000        836.000       0.125000       0.125000    
     404        868        867    900.000        900.000       0.125000       0.125000    
     405        885        886    853.000        853.000       0.125000       0.125000    
     406        885        891    920.000        920.000       0.125000       0.125000    
     407        886        887    859.000        859.000       0.125000       0.125000    
     408        896        888    866.000        866.000       0.125000       0.125000    
     409        886        889    891.000        891.000       0.125000       0.125000    
     410        896        890    898.000        898.000       0.125000       0.125000    
     411        891        892    886.000        886.000       0.125000       0.125000    
     412        898        893    896.000        896.000       0.125000       0.125000    
     413        891        894    921.000        921.000       0.125000       0.125000    
     414        898        895    931.000        931.000       0.125000       0.125000    
     415        900        897    868.000        868.000       0.125000       0.125000    
     416        900        899    935.000        935.000       0.125000       0.125000    
     417        881        913    880.000        880.000       0.125000       0.125000    
     418        912        913    880.000        880.000       0.125000       0.125000    
     419        881        914    882.000        882.000       0.125000       0.125000    
     420        917        914    882.000        882.000       0.125000       0.125000    
     421        912        915    947.000        948.000       0.166667       0.166667    
     422        917        916    979.000        980.000       0.166667       0.166667    
     423        920        921    885.000        885.000       0.125000       0.125000    
     424        920        926    985.000        985.000       0.125000       0.125000    
     425        921        922    891.000        891.000       0.125000       0.125000    
     426        931        923    898.000        898.000       0.125000       0.125000    
     427        921        924    926.000        926.000       0.125000       0.125000    
     428        931        925    933.000        933.000       0.125000       0.125000    
     429        926        927    921.000        921.000       0.125000       0.125000    
     430        933        928    931.000        931.000       0.125000       0.125000    
     431        926        929    986.000        986.000       0.125000       0.125000    
     432        933        930    996.000        996.000       0.125000       0.125000    
     433        935        932    900.000        900.000       0.125000       0.125000    
     434        935        934    1000.00        1000.00       0.125000       0.125000    
     435        912        947    911.000        911.000       0.125000       0.125000    
     436        946        947    911.000        911.000       0.125000       0.125000    
     437        912        948    915.000        913.000       0.166667       0.166667    
     438       1012        949    1011.00        1011.00       0.125000       0.125000    
     439        946        949    1011.00        1011.00       0.125000       0.125000    
     440       1012        950    1015.00        1013.00       0.166667       0.166667    
     441        915        951    912.000        912.000       8.333330E-02   8.333330E-02
     442        948        951    912.000        912.000       8.333330E-02   8.333330E-02
     443        915        952    916.000        916.000       0.125000       0.125000    
     444        948        953    950.000        950.000       0.125000       0.125000    
     445        952        954    951.000        951.000       0.125000       0.125000    
     446        953        954    951.000        951.000       0.125000       0.125000    
     447        952        955    958.000        958.000       0.125000       0.125000    
     448        953        956    965.000        965.000       0.125000       0.125000    
     449        916        958    915.000        915.000       0.125000       0.125000    
     450        916        959    917.000        917.000       8.333330E-02   8.333330E-02
     451        979        959    917.000        917.000       8.333330E-02   8.333330E-02
     452        979        964    981.000        981.000       0.125000       0.125000    
     453        958        960    952.000        952.000       0.125000       0.125000    
     454        958        961    959.000        959.000       0.125000       0.125000    
     455        964        961    959.000        959.000       0.125000       0.125000    
     456        964        963    976.000        976.000       0.125000       0.125000    
     457        950        965    948.000        948.000       0.125000       0.125000    
     458       1013        970    1012.00        1012.00       8.333330E-02   8.333330E-02
     459        950        970    1012.00        1012.00       8.333330E-02   8.333330E-02
     460       1013        971    1014.00        1014.00       0.125000       0.125000    
     461        965        966    953.000        953.000       0.125000       0.125000    
     462        971        968    970.000        970.000       0.125000       0.125000    
     463        965        968    970.000        970.000       0.125000       0.125000    
     464        971        969    977.000        977.000       0.125000       0.125000    
     465        981        976    979.000        979.000       0.125000       0.125000    
     466       1014        977    1013.00        1013.00       0.125000       0.125000    
     467        981        978    1017.00        1017.00       8.333330E-02   8.333330E-02
     468       1014        978    1017.00        1017.00       8.333330E-02   8.333330E-02
     469        976        973    964.000        964.000       0.125000       0.125000    
     470        977        974    971.000        971.000       0.125000       0.125000    
     471        976        975    978.000        978.000       0.125000       0.125000    
     472        977        975    978.000        978.000       0.125000       0.125000    
     473        917        979    914.000        916.000       0.166667       0.166667    
     474        917        980    918.000        918.000       0.125000       0.125000    
     475        983        980    918.000        918.000       0.125000       0.125000    
     476       1017        981    1014.00        1016.00       0.166667       0.166667    
     477        983        982    1018.00        1018.00       0.125000       0.125000    
     478       1017        982    1018.00        1018.00       0.125000       0.125000    
     479        985        986    920.000        920.000       0.125000       0.125000    
     480        985        991    1020.00        1020.00       0.125000       0.125000    
     481        986        987    926.000        926.000       0.125000       0.125000    
     482        996        988    933.000        933.000       0.125000       0.125000    
     483        986        989    991.000        991.000       0.125000       0.125000    
     484        996        990    998.000        998.000       0.125000       0.125000    
     485        991        992    986.000        986.000       0.125000       0.125000    
     486        998        993    996.000        996.000       0.125000       0.125000    
     487        991        994    1021.00        1021.00       0.125000       0.125000    
     488        998        995    1031.00        1031.00       0.125000       0.125000    
     489       1000        997    935.000        935.000       0.125000       0.125000    
     490       1000        999    1035.00        1035.00       0.125000       0.125000    
     491       1012       1013    950.000        949.000       0.166667       0.166667    
     492       1017       1014    982.000        981.000       0.166667       0.166667    
     493       1051       1015    1050.00        1050.00       0.125000       0.125000    
     494       1012       1015    1050.00        1050.00       0.125000       0.125000    
     495       1017       1016    1052.00        1052.00       0.125000       0.125000    
     496       1051       1016    1052.00        1052.00       0.125000       0.125000    
     497       1020       1021    985.000        985.000       0.125000       0.125000    
     498       1020       1026    1055.00        1055.00       0.125000       0.125000    
     499       1021       1022    991.000        991.000       0.125000       0.125000    
     500       1031       1023    998.000        998.000       0.125000       0.125000    
     501       1021       1024    1026.00        1026.00       0.125000       0.125000    
     502       1031       1025    1033.00        1033.00       0.125000       0.125000    
     503       1026       1027    1021.00        1021.00       0.125000       0.125000    
     504       1033       1028    1031.00        1031.00       0.125000       0.125000    
     505       1026       1029    1056.00        1056.00       0.125000       0.125000    
     506       1033       1030    1066.00        1066.00       0.125000       0.125000    
     507       1035       1032    1000.00        1000.00       0.125000       0.125000    
     508       1035       1034    1070.00        1070.00       0.125000       0.125000    
     509       1009       1044    1008.00        1008.00       0.125000       0.125000    
     510       1043       1044    1008.00        1008.00       0.125000       0.125000    
     511       1009       1045    1010.00        1010.00       0.125000       0.125000    
     512       1048       1045    1010.00        1010.00       0.125000       0.125000    
     513       1043       1046    1078.00        1079.00       0.166667       0.166667    
     514       1048       1047    1110.00        1111.00       0.166667       0.166667    
     515       1055       1056    1020.00        1020.00       0.125000       0.125000    
     516       1055       1061    1120.00        1120.00       0.125000       0.125000    
     517       1056       1057    1026.00        1026.00       0.125000       0.125000    
     518       1066       1058    1033.00        1033.00       0.125000       0.125000    
     519       1056       1059    1061.00        1061.00       0.125000       0.125000    
     520       1066       1060    1068.00        1068.00       0.125000       0.125000    
     521       1061       1062    1056.00        1056.00       0.125000       0.125000    
     522       1068       1063    1066.00        1066.00       0.125000       0.125000    
     523       1061       1064    1121.00        1121.00       0.125000       0.125000    
     524       1068       1065    1131.00        1131.00       0.125000       0.125000    
     525       1070       1067    1035.00        1035.00       0.125000       0.125000    
     526       1070       1069    1135.00        1135.00       0.125000       0.125000    
     527       1043       1078    1042.00        1042.00       0.125000       0.125000    
     528       1077       1078    1042.00        1042.00       0.125000       0.125000    
     529       1043       1079    1046.00        1044.00       0.166667       0.166667    
     530       1143       1080    1142.00        1142.00       0.125000       0.125000    
     531       1077       1080    1142.00        1142.00       0.125000       0.125000    
     532       1143       1081    1146.00        1144.00       0.166667       0.166667    
     533       1046       1082    1043.00        1043.00       8.333330E-02   8.333330E-02
     534       1079       1082    1043.00        1043.00       8.333330E-02   8.333330E-02
     535       1046       1083    1047.00        1047.00       0.125000       0.125000    
     536       1079       1084    1081.00        1081.00       0.125000       0.125000    
     537       1083       1085    1082.00        1082.00       0.125000       0.125000    
     538       1084       1085    1082.00        1082.00       0.125000       0.125000    
     539       1083       1086    1089.00        1089.00       0.125000       0.125000    
     540       1084       1087    1096.00        1096.00       0.125000       0.125000    
     541       1047       1089    1046.00        1046.00       0.125000       0.125000    
     542       1047       1090    1048.00        1048.00       8.333330E-02   8.333330E-02
     543       1110       1090    1048.00        1048.00       8.333330E-02   8.333330E-02
     544       1110       1095    1112.00        1112.00       0.125000       0.125000    
     545       1089       1091    1083.00        1083.00       0.125000       0.125000    
     546       1089       1092    1090.00        1090.00       0.125000       0.125000    
     547       1095       1092    1090.00        1090.00       0.125000       0.125000    
     548       1095       1094    1107.00        1107.00       0.125000       0.125000    
     549       1081       1096    1079.00        1079.00       0.125000       0.125000    
     550       1144       1101    1143.00        1143.00       8.333330E-02   8.333330E-02
     551       1081       1101    1143.00        1143.00       8.333330E-02   8.333330E-02
     552       1144       1102    1145.00        1145.00       0.125000       0.125000    
     553       1096       1097    1084.00        1084.00       0.125000       0.125000    
     554       1102       1099    1101.00        1101.00       0.125000       0.125000    
     555       1096       1099    1101.00        1101.00       0.125000       0.125000    
     556       1102       1100    1108.00        1108.00       0.125000       0.125000    
     557       1112       1107    1110.00        1110.00       0.125000       0.125000    
     558       1145       1108    1144.00        1144.00       0.125000       0.125000    
     559       1112       1109    1148.00        1148.00       8.333330E-02   8.333330E-02
     560       1145       1109    1148.00        1148.00       8.333330E-02   8.333330E-02
     561       1107       1104    1095.00        1095.00       0.125000       0.125000    
     562       1108       1105    1102.00        1102.00       0.125000       0.125000    
     563       1107       1106    1109.00        1109.00       0.125000       0.125000    
     564       1108       1106    1109.00        1109.00       0.125000       0.125000    
     565       1048       1110    1045.00        1047.00       0.166667       0.166667    
     566       1048       1111    1049.00        1049.00       0.125000       0.125000    
     567       1114       1111    1049.00        1049.00       0.125000       0.125000    
     568       1148       1112    1145.00        1147.00       0.166667       0.166667    
     569       1114       1113    1149.00        1149.00       0.125000       0.125000    
     570       1148       1113    1149.00        1149.00       0.125000       0.125000    
     571       1120       1121    1055.00        1055.00       0.125000       0.125000    
     572       1120       1126    1155.00        1155.00       0.125000       0.125000    
     573       1121       1122    1061.00        1061.00       0.125000       0.125000    
     574       1131       1123    1068.00        1068.00       0.125000       0.125000    
     575       1121       1124    1126.00        1126.00       0.125000       0.125000    
     576       1131       1125    1133.00        1133.00       0.125000       0.125000    
     577       1126       1127    1121.00        1121.00       0.125000       0.125000    
     578       1133       1128    1131.00        1131.00       0.125000       0.125000    
     579       1126       1129    1156.00        1156.00       0.125000       0.125000    
     580       1133       1130    1166.00        1166.00       0.125000       0.125000    
     581       1135       1132    1070.00        1070.00       0.125000       0.125000    
     582       1135       1134    1170.00        1170.00       0.125000       0.125000    
     583       1143       1144    1081.00        1080.00       0.166667       0.166667    
     584       1148       1145    1113.00        1112.00       0.166667       0.166667    
     585       1179       1146    1178.00        1178.00       0.125000       0.125000    
     586       1143       1146    1178.00        1178.00       0.125000       0.125000    
     587       1148       1147    1180.00        1180.00       0.125000       0.125000    
     588       1179       1147    1180.00        1180.00       0.125000       0.125000    
     589       1155       1156    1120.00        1120.00       0.125000       0.125000    
     590       1155       1161    1187.00        1187.00       0.125000       0.125000    
     591       1156       1157    1126.00        1126.00       0.125000       0.125000    
     592       1166       1158    1133.00        1133.00       0.125000       0.125000    
     593       1156       1159    1161.00        1161.00       0.125000       0.125000    
     594       1166       1160    1168.00        1168.00       0.125000       0.125000    
     595       1161       1162    1156.00        1156.00       0.125000       0.125000    
     596       1168       1163    1166.00        1166.00       0.125000       0.125000    
     597       1161       1164    1188.00        1188.00       0.125000       0.125000    
     598       1168       1165    1198.00        1198.00       0.125000       0.125000    
     599       1170       1167    1135.00        1135.00       0.125000       0.125000    
     600       1170       1169    1202.00        1202.00       0.125000       0.125000    
     601       1187       1188    1155.00        1155.00       0.125000       0.125000    
     602       1187       1193    1219.00        1219.00       0.125000       0.125000    
     603       1188       1189    1161.00        1161.00       0.125000       0.125000    
     604       1198       1190    1168.00        1168.00       0.125000       0.125000    
     605       1188       1191    1193.00        1193.00       0.125000       0.125000    
     606       1198       1192    1200.00        1200.00       0.125000       0.125000    
     607       1193       1194    1188.00        1188.00       0.125000       0.125000    
     608       1200       1195    1198.00        1198.00       0.125000       0.125000    
     609       1193       1196    1220.00        1220.00       0.125000       0.125000    
     610       1200       1197    1230.00        1230.00       0.125000       0.125000    
     611       1202       1199    1170.00        1170.00       0.125000       0.125000    
     612       1202       1201    1234.00        1234.00       0.125000       0.125000    
     613       1219       1220    1187.00        1187.00       0.125000       0.125000    
     614       1219       1225    1254.00        1254.00       0.125000       0.125000    
     615       1220       1221    1193.00        1193.00       0.125000       0.125000    
     616       1230       1222    1200.00        1200.00       0.125000       0.125000    
     617       1220       1223    1225.00        1225.00       0.125000       0.125000    
     618       1230       1224    1232.00        1232.00       0.125000       0.125000    
     619       1225       1226    1220.00        1220.00       0.125000       0.125000    
     620       1232       1227    1230.00        1230.00       0.125000       0.125000    
     621       1225       1228    1255.00        1255.00       0.125000       0.125000    
     622       1232       1229    1265.00        1265.00       0.125000       0.125000    
     623       1234       1231    1202.00        1202.00       0.125000       0.125000    
     624       1234       1233    1269.00        1269.00       0.125000       0.125000    
     625       1217       1249    1216.00        1216.00       0.125000       0.125000    
     626       1248       1249    1216.00        1216.00       0.125000       0.125000    
     627       1217       1250    1218.00        1218.00       0.125000       0.125000    
     628       1253       1250    1218.00        1218.00       0.125000       0.125000    
     629       1248       1251    1283.00        1284.00       0.166667       0.166667    
     630       1253       1252    1315.00        1316.00       0.166667       0.166667    
     631       1254       1255    1219.00        1219.00       0.125000       0.125000    
     632       1254       1260    1319.00        1319.00       0.125000       0.125000    
     633       1255       1256    1225.00        1225.00       0.125000       0.125000    
     634       1265       1257    1232.00        1232.00       0.125000       0.125000    
     635       1255       1258    1260.00        1260.00       0.125000       0.125000    
     636       1265       1259    1267.00        1267.00       0.125000       0.125000    
     637       1260       1261    1255.00        1255.00       0.125000       0.125000    
     638       1267       1262    1265.00        1265.00       0.125000       0.125000    
     639       1260       1263    1320.00        1320.00       0.125000       0.125000    
     640       1267       1264    1330.00        1330.00       0.125000       0.125000    
     641       1269       1266    1234.00        1234.00       0.125000       0.125000    
     642       1269       1268    1334.00        1334.00       0.125000       0.125000    
     643       1248       1283    1247.00        1247.00       0.125000       0.125000    
     644       1282       1283    1247.00        1247.00       0.125000       0.125000    
     645       1248       1284    1251.00        1249.00       0.166667       0.166667    
     646       1348       1285    1347.00        1347.00       0.125000       0.125000    
     647       1282       1285    1347.00        1347.00       0.125000       0.125000    
     648       1348       1286    1351.00        1349.00       0.166667       0.166667    
     649       1251       1287    1248.00        1248.00       8.333330E-02   8.333330E-02
     650       1284       1287    1248.00        1248.00       8.333330E-02   8.333330E-02
     651       1251       1288    1252.00        1252.00       0.125000       0.125000    
     652       1284       1289    1286.00        1286.00       0.125000       0.125000    
     653       1288       1290    1287.00        1287.00       0.125000       0.125000    
     654       1289       1290    1287.00        1287.00       0.125000       0.125000    
     655       1288       1291    1294.00        1294.00       0.125000       0.125000    
     656       1289       1292    1301.00        1301.00       0.125000       0.125000    
     657       1252       1294    1251.00        1251.00       0.125000       0.125000    
     658       1252       1295    1253.00        1253.00       8.333330E-02   8.333330E-02
     659       1315       1295    1253.00        1253.00       8.333330E-02   8.333330E-02
     660       1315       1300    1317.00        1317.00       0.125000       0.125000    
     661       1294       1296    1288.00        1288.00       0.125000       0.125000    
     662       1294       1297    1295.00        1295.00       0.125000       0.125000    
     663       1300       1297    1295.00        1295.00       0.125000       0.125000    
     664       1300       1299    1312.00        1312.00       0.125000       0.125000    
     665       1286       1301    1284.00        1284.00       0.125000       0.125000    
     666       1349       1306    1348.00        1348.00       8.333330E-02   8.333330E-02
     667       1286       1306    1348.00        1348.00       8.333330E-02   8.333330E-02
     668       1349       1307    1350.00        1350.00       0.125000       0.125000    
     669       1301       1302    1289.00        1289.00       0.125000       0.125000    
     670       1307       1304    1306.00        1306.00       0.125000       0.125000    
     671       1301       1304    1306.00        1306.00       0.125000       0.125000    
     672       1307       1305    1313.00        1313.00       0.125000       0.125000    
     673       1317       1312    1315.00        1315.00       0.125000       0.125000    
     674       1350       1313    1349.00        1349.00       0.125000       0.125000    
     675       1317       1314    1353.00        1353.00       8.333330E-02   8.333330E-02
     676       1350       1314    1353.00        1353.00       8.333330E-02   8.333330E-02
     677       1312       1309    1300.00        1300.00       0.125000       0.125000    
     678       1313       1310    1307.00        1307.00       0.125000       0.125000    
     679       1312       1311    1314.00        1314.00       0.125000       0.125000    
     680       1313       1311    1314.00        1314.00       0.125000       0.125000    
     681       1253       1315    1250.00        1252.00       0.166667       0.166667    
     682       1253       1316    1254.00        1254.00       0.125000       0.125000    
     683       1319       1316    1254.00        1254.00       0.125000       0.125000    
     684       1353       1317    1350.00        1352.00       0.166667       0.166667    
     685       1319       1318    1354.00        1354.00       0.125000       0.125000    
     686       1353       1318    1354.00        1354.00       0.125000       0.125000    
     687       1319       1320    1254.00        1254.00       0.125000       0.125000    
     688       1319       1325    1354.00        1354.00       0.125000       0.125000    
     689       1320       1321    1260.00        1260.00       0.125000       0.125000    
     690       1330       1322    1267.00        1267.00       0.125000       0.125000    
     691       1320       1323    1325.00        1325.00       0.125000       0.125000    
     692       1330       1324    1332.00        1332.00       0.125000       0.125000    
     693       1325       1326    1320.00        1320.00       0.125000       0.125000    
     694       1332       1327    1330.00        1330.00       0.125000       0.125000    
     695       1325       1328    1355.00        1355.00       0.125000       0.125000    
     696       1332       1329    1365.00        1365.00       0.125000       0.125000    
     697       1334       1331    1269.00        1269.00       0.125000       0.125000    
     698       1334       1333    1369.00        1369.00       0.125000       0.125000    
     699       1348       1349    1286.00        1285.00       0.166667       0.166667    
     700       1353       1350    1318.00        1317.00       0.166667       0.166667    
     701       1384       1351    1383.00        1383.00       0.125000       0.125000    
     702       1348       1351    1383.00        1383.00       0.125000       0.125000    
     703       1353       1352    1385.00        1385.00       0.125000       0.125000    
     704       1384       1352    1385.00        1385.00       0.125000       0.125000    
     705       1354       1355    1319.00        1319.00       0.125000       0.125000    
     706       1354       1360    1386.00        1386.00       0.125000       0.125000    
     707       1355       1356    1325.00        1325.00       0.125000       0.125000    
     708       1365       1357    1332.00        1332.00       0.125000       0.125000    
     709       1355       1358    1360.00        1360.00       0.125000       0.125000    
     710       1365       1359    1367.00        1367.00       0.125000       0.125000    
     711       1360       1361    1355.00        1355.00       0.125000       0.125000    
     712       1367       1362    1365.00        1365.00       0.125000       0.125000    
     713       1360       1363    1387.00        1387.00       0.125000       0.125000    
     714       1367       1364    1397.00        1397.00       0.125000       0.125000    
     715       1369       1366    1334.00        1334.00       0.125000       0.125000    
     716       1369       1368    1401.00        1401.00       0.125000       0.125000    
     717       1386       1387    1354.00        1354.00       0.125000       0.125000    
     718       1386       1392    1418.00        1418.00       0.125000       0.125000    
     719       1387       1388    1360.00        1360.00       0.125000       0.125000    
     720       1397       1389    1367.00        1367.00       0.125000       0.125000    
     721       1387       1390    1392.00        1392.00       0.125000       0.125000    
     722       1397       1391    1399.00        1399.00       0.125000       0.125000    
     723       1392       1393    1387.00        1387.00       0.125000       0.125000    
     724       1399       1394    1397.00        1397.00       0.125000       0.125000    
     725       1392       1395    1419.00        1419.00       0.125000       0.125000    
     726       1399       1396    1429.00        1429.00       0.125000       0.125000    
     727       1401       1398    1369.00        1369.00       0.125000       0.125000    
     728       1401       1400    1433.00        1433.00       0.125000       0.125000    
     729       1418       1419    1386.00        1386.00       0.125000       0.125000    
     730       1418       1424    1450.00        1450.00       0.125000       0.125000    
     731       1419       1420    1392.00        1392.00       0.125000       0.125000    
     732       1429       1421    1399.00        1399.00       0.125000       0.125000    
     733       1419       1422    1424.00        1424.00       0.125000       0.125000    
     734       1429       1423    1431.00        1431.00       0.125000       0.125000    
     735       1424       1425    1419.00        1419.00       0.125000       0.125000    
     736       1431       1426    1429.00        1429.00       0.125000       0.125000    
     737       1424       1427    1451.00        1451.00       0.125000       0.125000    
     738       1431       1428    1461.00        1461.00       0.125000       0.125000    
     739       1433       1430    1401.00        1401.00       0.125000       0.125000    
     740       1433       1432    1465.00        1465.00       0.125000       0.125000    
     741       1450       1451    1418.00        1418.00       0.125000       0.125000    
     742       1450       1456    1482.00        1482.00       0.125000       0.125000    
     743       1451       1452    1424.00        1424.00       0.125000       0.125000    
     744       1461       1453    1431.00        1431.00       0.125000       0.125000    
     745       1451       1454    1456.00        1456.00       0.125000       0.125000    
     746       1461       1455    1463.00        1463.00       0.125000       0.125000    
     747       1456       1457    1451.00        1451.00       0.125000       0.125000    
     748       1463       1458    1461.00        1461.00       0.125000       0.125000    
     749       1456       1459    1483.00        1483.00       0.125000       0.125000    
     750       1463       1460    1493.00        1493.00       0.125000       0.125000    
     751       1465       1462    1433.00        1433.00       0.125000       0.125000    
     752       1465       1464    1497.00        1497.00       0.125000       0.125000    
     753       1482       1483    1450.00        1450.00       0.125000       0.125000    
     754       1483       1484    1456.00        1456.00       0.125000       0.125000    
     755       1493       1485    1463.00        1463.00       0.125000       0.125000    
     756       1483       1486    1488.00        1488.00       0.125000       0.125000    
     757       1493       1487    1495.00        1495.00       0.125000       0.125000    
     758       1488       1489    1483.00        1483.00       0.125000       0.125000    
     759       1495       1490    1493.00        1493.00       0.125000       0.125000    
     760       1497       1494    1465.00        1465.00       0.125000       0.125000    
     761       1514       1520    1546.00        1546.00       0.125000       0.125000    
     762       1515       1518    1520.00        1520.00       0.125000       0.125000    
     763       1525       1519    1527.00        1527.00       0.125000       0.125000    
     764       1520       1521    1515.00        1515.00       0.125000       0.125000    
     765       1527       1522    1525.00        1525.00       0.125000       0.125000    
     766       1520       1523    1547.00        1547.00       0.125000       0.125000    
     767       1527       1524    1557.00        1557.00       0.125000       0.125000    
     768       1529       1528    1561.00        1561.00       0.125000       0.125000    
     769       1546       1547    1514.00        1514.00       0.125000       0.125000    
     770       1546       1552    1578.00        1578.00       0.125000       0.125000    
     771       1547       1548    1520.00        1520.00       0.125000       0.125000    
     772       1557       1549    1527.00        1527.00       0.125000       0.125000    
     773       1547       1550    1552.00        1552.00       0.125000       0.125000    
     774       1557       1551    1559.00        1559.00       0.125000       0.125000    
     775       1552       1553    1547.00        1547.00       0.125000       0.125000    
     776       1559       1554    1557.00        1557.00       0.125000       0.125000    
     777       1552       1555    1579.00        1579.00       0.125000       0.125000    
     778       1559       1556    1589.00        1589.00       0.125000       0.125000    
     779       1561       1558    1529.00        1529.00       0.125000       0.125000    
     780       1561       1560    1593.00        1593.00       0.125000       0.125000    
     781       1578       1579    1546.00        1546.00       0.125000       0.125000    
     782       1578       1584    1610.00        1610.00       0.125000       0.125000    
     783       1579       1580    1552.00        1552.00       0.125000       0.125000    
     784       1589       1581    1559.00        1559.00       0.125000       0.125000    
     785       1579       1582    1584.00        1584.00       0.125000       0.125000    
     786       1589       1583    1591.00        1591.00       0.125000       0.125000    
     787       1584       1585    1579.00        1579.00       0.125000       0.125000    
     788       1591       1586    1589.00        1589.00       0.125000       0.125000    
     789       1584       1587    1611.00        1611.00       0.125000       0.125000    
     790       1591       1588    1621.00        1621.00       0.125000       0.125000    
     791       1593       1590    1561.00        1561.00       0.125000       0.125000    
     792       1593       1592    1625.00        1625.00       0.125000       0.125000    
     793       1610       1611    1578.00        1578.00       0.125000       0.125000    
     794       1610       1616    1642.00        1642.00       0.125000       0.125000    
     795       1611       1612    1584.00        1584.00       0.125000       0.125000    
     796       1621       1613    1591.00        1591.00       0.125000       0.125000    
     797       1611       1614    1616.00        1616.00       0.125000       0.125000    
     798       1621       1615    1623.00        1623.00       0.125000       0.125000    
     799       1616       1617    1611.00        1611.00       0.125000       0.125000    
     800       1623       1618    1621.00        1621.00       0.125000       0.125000    
     801       1616       1619    1643.00        1643.00       0.125000       0.125000    
     802       1623       1620    1653.00        1653.00       0.125000       0.125000    
     803       1625       1622    1593.00        1593.00       0.125000       0.125000    
     804       1625       1624    1657.00        1657.00       0.125000       0.125000    
     805       1642       1643    1610.00        1610.00       0.125000       0.125000    
     806       1642       1648    1674.00        1674.00       0.125000       0.125000    
     807       1643       1644    1616.00        1616.00       0.125000       0.125000    
     808       1653       1645    1623.00        1623.00       0.125000       0.125000    
     809       1643       1646    1648.00        1648.00       0.125000       0.125000    
     810       1653       1647    1655.00        1655.00       0.125000       0.125000    
     811       1648       1649    1643.00        1643.00       0.125000       0.125000    
     812       1655       1650    1653.00        1653.00       0.125000       0.125000    
     813       1648       1651    1675.00        1675.00       0.125000       0.125000    
     814       1655       1652    1685.00        1685.00       0.125000       0.125000    
     815       1657       1654    1625.00        1625.00       0.125000       0.125000    
     816       1657       1656    1689.00        1689.00       0.125000       0.125000    
     817       1674       1675    1642.00        1642.00       0.125000       0.125000    
     818       1674       1680    1706.00        1706.00       0.125000       0.125000    
     819       1675       1676    1648.00        1648.00       0.125000       0.125000    
     820       1685       1677    1655.00        1655.00       0.125000       0.125000    
     821       1675       1678    1680.00        1680.00       0.125000       0.125000    
     822       1685       1679    1687.00        1687.00       0.125000       0.125000    
     823       1680       1681    1675.00        1675.00       0.125000       0.125000    
     824       1687       1682    1685.00        1685.00       0.125000       0.125000    
     825       1680       1683    1707.00        1707.00       0.125000       0.125000    
     826       1687       1684    1717.00        1717.00       0.125000       0.125000    
     827       1689       1686    1657.00        1657.00       0.125000       0.125000    
     828       1689       1688    1721.00        1721.00       0.125000       0.125000    
     829       1706       1707    1674.00        1674.00       0.125000       0.125000    
     830       1706       1712    1738.00        1738.00       0.125000       0.125000    
     831       1707       1708    1680.00        1680.00       0.125000       0.125000    
     832       1717       1709    1687.00        1687.00       0.125000       0.125000    
     833       1707       1710    1712.00        1712.00       0.125000       0.125000    
     834       1717       1711    1719.00        1719.00       0.125000       0.125000    
     835       1712       1713    1707.00        1707.00       0.125000       0.125000    
     836       1719       1714    1717.00        1717.00       0.125000       0.125000    
     837       1712       1715    1739.00        1739.00       0.125000       0.125000    
     838       1719       1716    1749.00        1749.00       0.125000       0.125000    
     839       1721       1718    1689.00        1689.00       0.125000       0.125000    
     840       1721       1720    1753.00        1753.00       0.125000       0.125000    
     841       1738       1739    1706.00        1706.00       0.125000       0.125000    
     842       1738       1744    1770.00        1770.00       0.125000       0.125000    
     843       1739       1740    1712.00        1712.00       0.125000       0.125000    
     844       1749       1741    1719.00        1719.00       0.125000       0.125000    
     845       1739       1742    1744.00        1744.00       0.125000       0.125000    
     846       1749       1743    1751.00        1751.00       0.125000       0.125000    
     847       1744       1745    1739.00        1739.00       0.125000       0.125000    
     848       1751       1746    1749.00        1749.00       0.125000       0.125000    
     849       1744       1747    1771.00        1771.00       0.125000       0.125000    
     850       1751       1748    1781.00        1781.00       0.125000       0.125000    
     851       1753       1750    1721.00        1721.00       0.125000       0.125000    
     852       1753       1752    1785.00        1785.00       0.125000       0.125000    
     853       1770       1771    1738.00        1738.00       0.125000       0.125000    
     854       1770       1776    1802.00        1802.00       0.125000       0.125000    
     855       1771       1772    1744.00        1744.00       0.125000       0.125000    
     856       1781       1773    1751.00        1751.00       0.125000       0.125000    
     857       1771       1774    1776.00        1776.00       0.125000       0.125000    
     858       1781       1775    1783.00        1783.00       0.125000       0.125000    
     859       1776       1777    1771.00        1771.00       0.125000       0.125000    
     860       1783       1778    1781.00        1781.00       0.125000       0.125000    
     861       1776       1779    1803.00        1803.00       0.125000       0.125000    
     862       1783       1780    1813.00        1814.00       0.166667       0.166667    
     863       1785       1782    1753.00        1753.00       0.125000       0.125000    
     864       1785       1784    1841.00        1842.00       0.166667       0.166667    
     865       1802       1803    1770.00        1770.00       0.125000       0.125000    
     866       1802       1808    1864.00        1864.00       0.125000       0.125000    
     867       1803       1804    1776.00        1776.00       0.125000       0.125000    
     868       1803       1806    1808.00        1808.00       0.125000       0.125000    
     869       1808       1809    1803.00        1803.00       0.125000       0.125000    
     870       1808       1811    1865.00        1865.00       0.125000       0.125000    
     871       1783       1813    1778.00        1780.00       0.166667       0.166667    
     872       1783       1814    1784.00        1784.00       0.125000       0.125000    
     873       1814       1816    1813.00        1813.00       0.125000       0.125000    
     874       1815       1816    1813.00        1813.00       0.125000       0.125000    
     875       1814       1817    1820.00        1820.00       0.125000       0.125000    
     876       1815       1818    1827.00        1827.00       0.125000       0.125000    
     877       1784       1820    1783.00        1783.00       0.125000       0.125000    
     878       1784       1821    1785.00        1785.00       8.333330E-02   8.333330E-02
     879       1841       1821    1785.00        1785.00       8.333330E-02   8.333330E-02
     880       1841       1826    1843.00        1843.00       0.125000       0.125000    
     881       1820       1822    1814.00        1814.00       0.125000       0.125000    
     882       1820       1823    1821.00        1821.00       0.125000       0.125000    
     883       1826       1823    1821.00        1821.00       0.125000       0.125000    
     884       1826       1825    1838.00        1838.00       0.125000       0.125000    
     885       1875       1832    1867.00        1869.00       0.166667       0.166667    
     886       1875       1833    1876.00        1876.00       0.125000       0.125000    
     887       1827       1828    1815.00        1815.00       0.125000       0.125000    
     888       1833       1830    1832.00        1832.00       0.125000       0.125000    
     889       1827       1830    1832.00        1832.00       0.125000       0.125000    
     890       1833       1831    1839.00        1839.00       0.125000       0.125000    
     891       1843       1838    1841.00        1841.00       0.125000       0.125000    
     892       1876       1839    1875.00        1875.00       0.125000       0.125000    
     893       1843       1840    1879.00        1879.00       8.333330E-02   8.333330E-02
     894       1876       1840    1879.00        1879.00       8.333330E-02   8.333330E-02
     895       1838       1835    1826.00        1826.00       0.125000       0.125000    
     896       1839       1836    1833.00        1833.00       0.125000       0.125000    
     897       1838       1837    1840.00        1840.00       0.125000       0.125000    
     898       1839       1837    1840.00        1840.00       0.125000       0.125000    
     899       1785       1841    1782.00        1784.00       0.166667       0.166667    
     900       1785       1842    1786.00        1786.00       0.125000       0.125000    
     901       1845       1842    1786.00        1786.00       0.125000       0.125000    
     902       1879       1843    1876.00        1878.00       0.166667       0.166667    
     903       1845       1844    1880.00        1880.00       0.125000       0.125000    
     904       1879       1844    1880.00        1880.00       0.125000       0.125000    
     905       1801       1860    1800.00        1800.00       0.125000       0.125000    
     906       1859       1860    1800.00        1800.00       0.125000       0.125000    
     907       1801       1861    1802.00        1802.00       0.125000       0.125000    
     908       1864       1861    1802.00        1802.00       0.125000       0.125000    
     909       1859       1862    1894.00        1895.00       0.166667       0.166667    
     910       1864       1863    1926.00        1927.00       0.166667       0.166667    
     911       1864       1865    1802.00        1802.00       0.125000       0.125000    
     912       1864       1870    1926.00        1927.00       0.166667       0.166667    
     913       1865       1866    1808.00        1808.00       0.125000       0.125000    
     914       1875       1867    1833.00        1832.00       0.166667       0.166667    
     915       1865       1868    1870.00        1870.00       0.125000       0.125000    
     916       1875       1869    1877.00        1877.00       0.125000       0.125000    
     917       1870       1871    1865.00        1865.00       0.125000       0.125000    
     918       1877       1872    1875.00        1875.00       0.125000       0.125000    
     919       1870       1873    1930.00        1930.00       0.125000       0.125000    
     920       1877       1874    1940.00        1940.00       0.125000       0.125000    
     921       1879       1876    1844.00        1843.00       0.166667       0.166667    
     922       1879       1878    1944.00        1944.00       0.125000       0.125000    
     923       1859       1894    1858.00        1858.00       0.125000       0.125000    
     924       1893       1894    1858.00        1858.00       0.125000       0.125000    
     925       1859       1895    1862.00        1860.00       0.166667       0.166667    
     926       1959       1896    1958.00        1958.00       0.125000       0.125000    
     927       1893       1896    1958.00        1958.00       0.125000       0.125000    
     928       1959       1897    1962.00        1960.00       0.166667       0.166667    
     929       1862       1898    1859.00        1859.00       8.333330E-02   8.333330E-02
     930       1895       1898    1859.00        1859.00       8.333330E-02   8.333330E-02
     931       1862       1899    1863.00        1863.00       0.125000       0.125000    
     932       1895       1900    1897.00        1897.00       0.125000       0.125000    
     933       1899       1901    1898.00        1898.00       0.125000       0.125000    
     934       1900       1901    1898.00        1898.00       0.125000       0.125000    
     935       1899       1902    1905.00        1905.00       0.125000       0.125000    
     936       1900       1903    1912.00        1912.00       0.125000       0.125000    
     937       1863       1905    1862.00        1862.00       0.125000       0.125000    
     938       1863       1906    1864.00        1864.00       8.333330E-02   8.333330E-02
     939       1926       1906    1864.00        1864.00       8.333330E-02   8.333330E-02
     940       1926       1911    1928.00        1928.00       0.125000       0.125000    
     941       1905       1907    1899.00        1899.00       0.125000       0.125000    
     942       1905       1908    1906.00        1906.00       0.125000       0.125000    
     943       1911       1908    1906.00        1906.00       0.125000       0.125000    
     944       1911       1910    1923.00        1923.00       0.125000       0.125000    
     945       1897       1912    1895.00        1895.00       0.125000       0.125000    
     946       1960       1917    1959.00        1959.00       8.333330E-02   8.333330E-02
     947       1897       1917    1959.00        1959.00       8.333330E-02   8.333330E-02
     948       1960       1918    1961.00        1961.00       0.125000       0.125000    
     949       1912       1913    1900.00        1900.00       0.125000       0.125000    
     950       1918       1915    1917.00        1917.00       0.125000       0.125000    
     951       1912       1915    1917.00        1917.00       0.125000       0.125000    
     952       1918       1916    1924.00        1924.00       0.125000       0.125000    
     953       1928       1923    1926.00        1926.00       0.125000       0.125000    
     954       1961       1924    1960.00        1960.00       0.125000       0.125000    
     955       1928       1925    1964.00        1964.00       8.333330E-02   8.333330E-02
     956       1961       1925    1964.00        1964.00       8.333330E-02   8.333330E-02
     957       1923       1920    1911.00        1911.00       0.125000       0.125000    
     958       1924       1921    1918.00        1918.00       0.125000       0.125000    
     959       1923       1922    1925.00        1925.00       0.125000       0.125000    
     960       1924       1922    1925.00        1925.00       0.125000       0.125000    
     961       1864       1926    1861.00        1863.00       0.166667       0.166667    
     962       1864       1927    1870.00        1865.00       0.166667       0.166667    
     963       1964       1928    1961.00        1963.00       0.166667       0.166667    
     964       1964       1929    1970.00        1965.00       0.166667       0.166667    
     965       1930       1931    1870.00        1870.00       0.125000       0.125000    
     966       1940       1932    1877.00        1877.00       0.125000       0.125000    
     967       1930       1933    1935.00        1935.00       0.125000       0.125000    
     968       1940       1934    1942.00        1942.00       0.125000       0.125000    
     969       1935       1936    1930.00        1930.00       0.125000       0.125000    
     970       1942       1937    1940.00        1940.00       0.125000       0.125000    
     971       1935       1938    1965.00        1965.00       0.125000       0.125000    
     972       1942       1939    1975.00        1975.00       0.125000       0.125000    
     973       1944       1941    1879.00        1879.00       0.125000       0.125000    
     974       1944       1943    1979.00        1979.00       0.125000       0.125000    
     975       1959       1960    1897.00        1896.00       0.166667       0.166667    
     976       1964       1961    1929.00        1928.00       0.166667       0.166667    
     977       1995       1962    1994.00        1994.00       0.125000       0.125000    
     978       1959       1962    1994.00        1994.00       0.125000       0.125000    
     979       1964       1963    1996.00        1996.00       0.125000       0.125000    
     980       1995       1963    1996.00        1996.00       0.125000       0.125000    
     981       1964       1965    1929.00        1928.00       0.166667       0.166667    
     982       1964       1970    1996.00        1996.00       0.125000       0.125000    
     983       1965       1966    1935.00        1935.00       0.125000       0.125000    
     984       1975       1967    1942.00        1942.00       0.125000       0.125000    
     985       1965       1968    1970.00        1970.00       0.125000       0.125000    
     986       1975       1969    1977.00        1977.00       0.125000       0.125000    
     987       1970       1971    1965.00        1965.00       0.125000       0.125000    
     988       1977       1972    1975.00        1975.00       0.125000       0.125000    
     989       1970       1973    1997.00        1997.00       0.125000       0.125000    
     990       1977       1974    2007.00        2007.00       0.125000       0.125000    
     991       1979       1976    1944.00        1944.00       0.125000       0.125000    
     992       1979       1978    2011.00        2011.00       0.125000       0.125000    
     993       1996       1997    1964.00        1964.00       0.125000       0.125000    
     994       1996       2002    2028.00        2028.00       0.125000       0.125000    
     995       1997       1998    1970.00        1970.00       0.125000       0.125000    
     996       2007       1999    1977.00        1977.00       0.125000       0.125000    
     997       1997       2000    2002.00        2002.00       0.125000       0.125000    
     998       2007       2001    2009.00        2009.00       0.125000       0.125000    
     999       2002       2003    1997.00        1997.00       0.125000       0.125000    
    1000       2009       2004    2007.00        2007.00       0.125000       0.125000    
    1001       2002       2005    2029.00        2029.00       0.125000       0.125000    
    1002       2009       2006    2039.00        2039.00       0.125000       0.125000    
    1003       2011       2008    1979.00        1979.00       0.125000       0.125000    
    1004       2011       2010    2043.00        2043.00       0.125000       0.125000    
    1005       2028       2029    1996.00        1996.00       0.125000       0.125000    
    1006       2028       2034    2060.00        2060.00       0.125000       0.125000    
    1007       2029       2030    2002.00        2002.00       0.125000       0.125000    
    1008       2039       2031    2009.00        2009.00       0.125000       0.125000    
    1009       2029       2032    2034.00        2034.00       0.125000       0.125000    
    1010       2039       2033    2041.00        2041.00       0.125000       0.125000    
    1011       2034       2035    2029.00        2029.00       0.125000       0.125000    
    1012       2041       2036    2039.00        2039.00       0.125000       0.125000    
    1013       2034       2037    2061.00        2061.00       0.125000       0.125000    
    1014       2041       2038    2071.00        2071.00       0.125000       0.125000    
    1015       2043       2040    2011.00        2011.00       0.125000       0.125000    
    1016       2043       2042    2075.00        2075.00       0.125000       0.125000    
    1017       2060       2061    2028.00        2028.00       0.125000       0.125000    
    1018       2060       2066    2092.00        2092.00       0.125000       0.125000    
    1019       2061       2062    2034.00        2034.00       0.125000       0.125000    
    1020       2071       2063    2041.00        2041.00       0.125000       0.125000    
    1021       2061       2064    2066.00        2066.00       0.125000       0.125000    
    1022       2071       2065    2073.00        2073.00       0.125000       0.125000    
    1023       2066       2067    2061.00        2061.00       0.125000       0.125000    
    1024       2073       2068    2071.00        2071.00       0.125000       0.125000    
    1025       2066       2069    2093.00        2093.00       0.125000       0.125000    
    1026       2073       2070    2103.00        2103.00       0.125000       0.125000    
    1027       2075       2072    2043.00        2043.00       0.125000       0.125000    
    1028       2075       2074    2107.00        2107.00       0.125000       0.125000    
    1029       2092       2093    2060.00        2060.00       0.125000       0.125000    
    1030       2092       2098    2124.00        2124.00       0.125000       0.125000    
    1031       2093       2094    2066.00        2066.00       0.125000       0.125000    
    1032       2103       2095    2073.00        2073.00       0.125000       0.125000    
    1033       2093       2096    2098.00        2098.00       0.125000       0.125000    
    1034       2103       2097    2105.00        2105.00       0.125000       0.125000    
    1035       2098       2099    2093.00        2093.00       0.125000       0.125000    
    1036       2105       2100    2103.00        2103.00       0.125000       0.125000    
    1037       2098       2101    2125.00        2125.00       0.125000       0.125000    
    1038       2105       2102    2135.00        2135.00       0.125000       0.125000    
    1039       2107       2104    2075.00        2075.00       0.125000       0.125000    
    1040       2107       2106    2139.00        2139.00       0.125000       0.125000    
    1041       2124       2125    2092.00        2092.00       0.125000       0.125000    
    1042       2124       2130    2156.00        2156.00       0.125000       0.125000    
    1043       2125       2126    2098.00        2098.00       0.125000       0.125000    
    1044       2135       2127    2105.00        2105.00       0.125000       0.125000    
    1045       2125       2128    2130.00        2130.00       0.125000       0.125000    
    1046       2135       2129    2137.00        2137.00       0.125000       0.125000    
    1047       2130       2131    2125.00        2125.00       0.125000       0.125000    
    1048       2137       2132    2135.00        2135.00       0.125000       0.125000    
    1049       2130       2133    2157.00        2157.00       0.125000       0.125000    
    1050       2137       2134    2167.00        2167.00       0.125000       0.125000    
    1051       2139       2136    2107.00        2107.00       0.125000       0.125000    
    1052       2139       2138    2171.00        2171.00       0.125000       0.125000    
    1053       2156       2157    2124.00        2124.00       0.125000       0.125000    
    1054       2156       2162    2188.00        2189.00       0.166667       0.166667    
    1055       2157       2158    2130.00        2130.00       0.125000       0.125000    
    1056       2167       2159    2137.00        2137.00       0.125000       0.125000    
    1057       2157       2160    2162.00        2162.00       0.125000       0.125000    
    1058       2167       2161    2169.00        2169.00       0.125000       0.125000    
    1059       2162       2163    2157.00        2157.00       0.125000       0.125000    
    1060       2169       2164    2167.00        2167.00       0.125000       0.125000    
    1061       2162       2165    2192.00        2192.00       0.125000       0.125000    
    1062       2169       2166    2202.00        2202.00       0.125000       0.125000    
    1063       2171       2168    2139.00        2139.00       0.125000       0.125000    
    1064       2171       2170    2206.00        2206.00       0.125000       0.125000    
    1065       2156       2188    2155.00        2155.00       0.125000       0.125000    
    1066       2187       2188    2155.00        2155.00       0.125000       0.125000    
    1067       2156       2189    2162.00        2157.00       0.166667       0.166667    
    1068       2187       2190    2222.00        2223.00       0.166667       0.166667    
    1069       2192       2193    2162.00        2162.00       0.125000       0.125000    
    1070       2202       2194    2169.00        2169.00       0.125000       0.125000    
    1071       2192       2195    2197.00        2197.00       0.125000       0.125000    
    1072       2202       2196    2204.00        2204.00       0.125000       0.125000    
    1073       2197       2198    2192.00        2192.00       0.125000       0.125000    
    1074       2204       2199    2202.00        2202.00       0.125000       0.125000    
    1075       2197       2200    2254.00        2254.00       0.125000       0.125000    
    1076       2204       2201    2264.00        2264.00       0.125000       0.125000    
    1077       2206       2203    2171.00        2171.00       0.125000       0.125000    
    1078       2206       2205    2268.00        2268.00       0.125000       0.125000    
    1079       2187       2222    2186.00        2186.00       0.125000       0.125000    
    1080       2221       2222    2186.00        2186.00       0.125000       0.125000    
    1081       2187       2223    2190.00        2188.00       0.166667       0.166667    
    1082       2284       2224    2283.00        2283.00       0.125000       0.125000    
    1083       2221       2224    2283.00        2283.00       0.125000       0.125000    
    1084       2284       2225    2287.00        2285.00       0.166667       0.166667    
    1085       2190       2226    2187.00        2187.00       8.333330E-02   8.333330E-02
    1086       2223       2226    2187.00        2187.00       8.333330E-02   8.333330E-02
    1087       2190       2227    2191.00        2191.00       0.125000       0.125000    
    1088       2223       2228    2225.00        2225.00       0.125000       0.125000    
    1089       2227       2229    2226.00        2226.00       0.125000       0.125000    
    1090       2228       2229    2226.00        2226.00       0.125000       0.125000    
    1091       2227       2230    2233.00        2233.00       0.125000       0.125000    
    1092       2228       2231    2240.00        2240.00       0.125000       0.125000    
    1093       2191       2233    2190.00        2190.00       0.125000       0.125000    
    1094       2191       2234    2197.00        2197.00       0.125000       0.125000    
    1095       2254       2234    2197.00        2197.00       0.125000       0.125000    
    1096       2254       2239    2259.00        2259.00       0.125000       0.125000    
    1097       2233       2235    2227.00        2227.00       0.125000       0.125000    
    1098       2233       2236    2234.00        2234.00       0.125000       0.125000    
    1099       2239       2236    2234.00        2234.00       0.125000       0.125000    
    1100       2239       2238    2251.00        2251.00       0.125000       0.125000    
    1101       2225       2240    2223.00        2223.00       0.125000       0.125000    
    1102       2285       2245    2284.00        2284.00       8.333330E-02   8.333330E-02
    1103       2225       2245    2284.00        2284.00       8.333330E-02   8.333330E-02
    1104       2285       2246    2286.00        2286.00       0.125000       0.125000    
    1105       2240       2241    2228.00        2228.00       0.125000       0.125000    
    1106       2246       2243    2245.00        2245.00       0.125000       0.125000    
    1107       2240       2243    2245.00        2245.00       0.125000       0.125000    
    1108       2246       2244    2252.00        2252.00       0.125000       0.125000    
    1109       2259       2251    2254.00        2254.00       0.125000       0.125000    
    1110       2286       2252    2285.00        2285.00       0.125000       0.125000    
    1111       2259       2253    2289.00        2289.00       0.125000       0.125000    
    1112       2286       2253    2289.00        2289.00       0.125000       0.125000    
    1113       2251       2248    2239.00        2239.00       0.125000       0.125000    
    1114       2252       2249    2246.00        2246.00       0.125000       0.125000    
    1115       2251       2250    2253.00        2253.00       0.125000       0.125000    
    1116       2252       2250    2253.00        2253.00       0.125000       0.125000    
    1117       2254       2255    2197.00        2197.00       0.125000       0.125000    
    1118       2264       2256    2204.00        2204.00       0.125000       0.125000    
    1119       2254       2257    2259.00        2259.00       0.125000       0.125000    
    1120       2264       2258    2266.00        2266.00       0.125000       0.125000    
    1121       2259       2260    2254.00        2254.00       0.125000       0.125000    
    1122       2266       2261    2264.00        2264.00       0.125000       0.125000    
    1123       2259       2262    2289.00        2289.00       0.125000       0.125000    
    1124       2266       2263    2299.00        2299.00       0.125000       0.125000    
    1125       2268       2265    2206.00        2206.00       0.125000       0.125000    
    1126       2268       2267    2303.00        2303.00       0.125000       0.125000    
    1127       2284       2285    2225.00        2224.00       0.166667       0.166667    
    1128       2320       2287    2319.00        2319.00       0.125000       0.125000    
    1129       2284       2287    2319.00        2319.00       0.125000       0.125000    
    1130       2320       2288    2326.00        2321.00       0.166667       0.166667    
    1131       2289       2290    2259.00        2259.00       0.125000       0.125000    
    1132       2299       2291    2266.00        2266.00       0.125000       0.125000    
    1133       2289       2292    2294.00        2294.00       0.125000       0.125000    
    1134       2299       2293    2301.00        2301.00       0.125000       0.125000    
    1135       2294       2295    2289.00        2289.00       0.125000       0.125000    
    1136       2301       2296    2299.00        2299.00       0.125000       0.125000    
    1137       2294       2297    2321.00        2321.00       0.125000       0.125000    
    1138       2301       2298    2331.00        2331.00       0.125000       0.125000    
    1139       2303       2300    2268.00        2268.00       0.125000       0.125000    
    1140       2303       2302    2335.00        2335.00       0.125000       0.125000    
    1141       2320       2321    2288.00        2287.00       0.166667       0.166667    
    1142       2320       2326    2352.00        2352.00       0.125000       0.125000    
    1143       2321       2322    2294.00        2294.00       0.125000       0.125000    
    1144       2331       2323    2301.00        2301.00       0.125000       0.125000    
    1145       2321       2324    2326.00        2326.00       0.125000       0.125000    
    1146       2331       2325    2333.00        2333.00       0.125000       0.125000    
    1147       2326       2327    2321.00        2321.00       0.125000       0.125000    
    1148       2333       2328    2331.00        2331.00       0.125000       0.125000    
    1149       2326       2329    2353.00        2353.00       0.125000       0.125000    
    1150       2333       2330    2363.00        2363.00       0.125000       0.125000    
    1151       2335       2332    2303.00        2303.00       0.125000       0.125000    
    1152       2335       2334    2367.00        2367.00       0.125000       0.125000    
    1153       2352       2353    2320.00        2320.00       0.125000       0.125000    
    1154       2352       2358    2384.00        2384.00       0.125000       0.125000    
    1155       2353       2354    2326.00        2326.00       0.125000       0.125000    
    1156       2363       2355    2333.00        2333.00       0.125000       0.125000    
    1157       2353       2356    2358.00        2358.00       0.125000       0.125000    
    1158       2363       2357    2365.00        2365.00       0.125000       0.125000    
    1159       2358       2359    2353.00        2353.00       0.125000       0.125000    
    1160       2365       2360    2363.00        2363.00       0.125000       0.125000    
    1161       2358       2361    2385.00        2385.00       0.125000       0.125000    
    1162       2365       2362    2395.00        2395.00       0.125000       0.125000    
    1163       2367       2364    2335.00        2335.00       0.125000       0.125000    
    1164       2367       2366    2399.00        2399.00       0.125000       0.125000    
    1165       2384       2385    2352.00        2352.00       0.125000       0.125000    
    1166       2384       2390    2419.00        2419.00       0.125000       0.125000    
    1167       2385       2386    2358.00        2358.00       0.125000       0.125000    
    1168       2395       2387    2365.00        2365.00       0.125000       0.125000    
    1169       2385       2388    2390.00        2390.00       0.125000       0.125000    
    1170       2395       2389    2397.00        2397.00       0.125000       0.125000    
    1171       2390       2391    2385.00        2385.00       0.125000       0.125000    
    1172       2397       2392    2395.00        2395.00       0.125000       0.125000    
    1173       2390       2393    2420.00        2420.00       0.125000       0.125000    
    1174       2397       2394    2430.00        2430.00       0.125000       0.125000    
    1175       2399       2396    2367.00        2367.00       0.125000       0.125000    
    1176       2399       2398    2434.00        2434.00       0.125000       0.125000    
    1177       2380       2412    2379.00        2379.00       0.125000       0.125000    
    1178       2411       2412    2379.00        2379.00       0.125000       0.125000    
    1179       2380       2413    2381.00        2381.00       0.125000       0.125000    
    1180       2416       2413    2381.00        2381.00       0.125000       0.125000    
    1181       2411       2414    2446.00        2447.00       0.166667       0.166667    
    1182       2416       2415    2478.00        2479.00       0.166667       0.166667    
    1183       2419       2420    2384.00        2384.00       0.125000       0.125000    
    1184       2419       2425    2484.00        2484.00       0.125000       0.125000    
    1185       2420       2421    2390.00        2390.00       0.125000       0.125000    
    1186       2430       2422    2397.00        2397.00       0.125000       0.125000    
    1187       2420       2423    2425.00        2425.00       0.125000       0.125000    
    1188       2430       2424    2432.00        2432.00       0.125000       0.125000    
    1189       2425       2426    2420.00        2420.00       0.125000       0.125000    
    1190       2432       2427    2430.00        2430.00       0.125000       0.125000    
    1191       2425       2428    2485.00        2485.00       0.125000       0.125000    
    1192       2432       2429    2495.00        2495.00       0.125000       0.125000    
    1193       2434       2431    2399.00        2399.00       0.125000       0.125000    
    1194       2434       2433    2499.00        2499.00       0.125000       0.125000    
    1195       2411       2446    2410.00        2410.00       0.125000       0.125000    
    1196       2445       2446    2410.00        2410.00       0.125000       0.125000    
    1197       2411       2447    2414.00        2412.00       0.166667       0.166667    
    1198       2511       2448    2510.00        2510.00       0.125000       0.125000    
    1199       2445       2448    2510.00        2510.00       0.125000       0.125000    
    1200       2511       2449    2514.00        2512.00       0.166667       0.166667    
    1201       2414       2450    2411.00        2411.00       8.333330E-02   8.333330E-02
    1202       2447       2450    2411.00        2411.00       8.333330E-02   8.333330E-02
    1203       2414       2451    2415.00        2415.00       0.125000       0.125000    
    1204       2447       2452    2449.00        2449.00       0.125000       0.125000    
    1205       2451       2453    2450.00        2450.00       0.125000       0.125000    
    1206       2452       2453    2450.00        2450.00       0.125000       0.125000    
    1207       2451       2454    2457.00        2457.00       0.125000       0.125000    
    1208       2452       2455    2464.00        2464.00       0.125000       0.125000    
    1209       2415       2457    2414.00        2414.00       0.125000       0.125000    
    1210       2415       2458    2416.00        2416.00       8.333330E-02   8.333330E-02
    1211       2478       2458    2416.00        2416.00       8.333330E-02   8.333330E-02
    1212       2478       2463    2480.00        2480.00       0.125000       0.125000    
    1213       2457       2459    2451.00        2451.00       0.125000       0.125000    
    1214       2457       2460    2458.00        2458.00       0.125000       0.125000    
    1215       2463       2460    2458.00        2458.00       0.125000       0.125000    
    1216       2463       2462    2475.00        2475.00       0.125000       0.125000    
    1217       2449       2464    2447.00        2447.00       0.125000       0.125000    
    1218       2512       2469    2511.00        2511.00       8.333330E-02   8.333330E-02
    1219       2449       2469    2511.00        2511.00       8.333330E-02   8.333330E-02
    1220       2512       2470    2513.00        2513.00       0.125000       0.125000    
    1221       2464       2465    2452.00        2452.00       0.125000       0.125000    
    1222       2470       2467    2469.00        2469.00       0.125000       0.125000    
    1223       2464       2467    2469.00        2469.00       0.125000       0.125000    
    1224       2470       2468    2476.00        2476.00       0.125000       0.125000    
    1225       2480       2475    2478.00        2478.00       0.125000       0.125000    
    1226       2513       2476    2512.00        2512.00       0.125000       0.125000    
    1227       2480       2477    2516.00        2516.00       8.333330E-02   8.333330E-02
    1228       2513       2477    2516.00        2516.00       8.333330E-02   8.333330E-02
    1229       2475       2472    2463.00        2463.00       0.125000       0.125000    
    1230       2476       2473    2470.00        2470.00       0.125000       0.125000    
    1231       2475       2474    2477.00        2477.00       0.125000       0.125000    
    1232       2476       2474    2477.00        2477.00       0.125000       0.125000    
    1233       2416       2478    2413.00        2415.00       0.166667       0.166667    
    1234       2416       2479    2417.00        2417.00       0.125000       0.125000    
    1235       2482       2479    2417.00        2417.00       0.125000       0.125000    
    1236       2516       2480    2513.00        2515.00       0.166667       0.166667    
    1237       2482       2481    2517.00        2517.00       0.125000       0.125000    
    1238       2516       2481    2517.00        2517.00       0.125000       0.125000    
    1239       2484       2485    2419.00        2419.00       0.125000       0.125000    
    1240       2484       2490    2519.00        2519.00       0.125000       0.125000    
    1241       2485       2486    2425.00        2425.00       0.125000       0.125000    
    1242       2495       2487    2432.00        2432.00       0.125000       0.125000    
    1243       2485       2488    2490.00        2490.00       0.125000       0.125000    
    1244       2495       2489    2497.00        2497.00       0.125000       0.125000    
    1245       2490       2491    2485.00        2485.00       0.125000       0.125000    
    1246       2497       2492    2495.00        2495.00       0.125000       0.125000    
    1247       2490       2493    2520.00        2520.00       0.125000       0.125000    
    1248       2497       2494    2530.00        2530.00       0.125000       0.125000    
    1249       2499       2496    2434.00        2434.00       0.125000       0.125000    
    1250       2499       2498    2534.00        2534.00       0.125000       0.125000    
    1251       2511       2512    2449.00        2448.00       0.166667       0.166667    
    1252       2516       2513    2481.00        2480.00       0.166667       0.166667    
    1253       2550       2514    2549.00        2549.00       0.125000       0.125000    
    1254       2511       2514    2549.00        2549.00       0.125000       0.125000    
    1255       2516       2515    2551.00        2551.00       0.125000       0.125000    
    1256       2550       2515    2551.00        2551.00       0.125000       0.125000    
    1257       2519       2520    2484.00        2484.00       0.125000       0.125000    
    1258       2519       2525    2554.00        2554.00       0.125000       0.125000    
    1259       2520       2521    2490.00        2490.00       0.125000       0.125000    
    1260       2530       2522    2497.00        2497.00       0.125000       0.125000    
    1261       2520       2523    2525.00        2525.00       0.125000       0.125000    
    1262       2530       2524    2532.00        2532.00       0.125000       0.125000    
    1263       2525       2526    2520.00        2520.00       0.125000       0.125000    
    1264       2532       2527    2530.00        2530.00       0.125000       0.125000    
    1265       2525       2528    2555.00        2555.00       0.125000       0.125000    
    1266       2532       2529    2565.00        2565.00       0.125000       0.125000    
    1267       2534       2531    2499.00        2499.00       0.125000       0.125000    
    1268       2534       2533    2569.00        2569.00       0.125000       0.125000    
    1269       2508       2543    2507.00        2507.00       0.125000       0.125000    
    1270       2542       2543    2507.00        2507.00       0.125000       0.125000    
    1271       2508       2544    2509.00        2509.00       0.125000       0.125000    
    1272       2547       2544    2509.00        2509.00       0.125000       0.125000    
    1273       2542       2545    2577.00        2578.00       0.166667       0.166667    
    1274       2547       2546    2609.00        2610.00       0.166667       0.166667    
    1275       2554       2555    2519.00        2519.00       0.125000       0.125000    
    1276       2554       2560    2619.00        2619.00       0.125000       0.125000    
    1277       2555       2556    2525.00        2525.00       0.125000       0.125000    
    1278       2565       2557    2532.00        2532.00       0.125000       0.125000    
    1279       2555       2558    2560.00        2560.00       0.125000       0.125000    
    1280       2565       2559    2567.00        2567.00       0.125000       0.125000    
    1281       2560       2561    2555.00        2555.00       0.125000       0.125000    
    1282       2567       2562    2565.00        2565.00       0.125000       0.125000    
    1283       2560       2563    2620.00        2620.00       0.125000       0.125000    
    1284       2567       2564    2630.00        2630.00       0.125000       0.125000    
    1285       2569       2566    2534.00        2534.00       0.125000       0.125000    
    1286       2569       2568    2634.00        2634.00       0.125000       0.125000    
    1287       2542       2577    2541.00        2541.00       0.125000       0.125000    
    1288       2576       2577    2541.00        2541.00       0.125000       0.125000    
    1289       2542       2578    2545.00        2543.00       0.166667       0.166667    
    1290       2642       2579    2641.00        2641.00       0.125000       0.125000    
    1291       2576       2579    2641.00        2641.00       0.125000       0.125000    
    1292       2642       2580    2645.00        2643.00       0.166667       0.166667    
    1293       2545       2581    2542.00        2542.00       8.333330E-02   8.333330E-02
    1294       2578       2581    2542.00        2542.00       8.333330E-02   8.333330E-02
    1295       2545       2582    2546.00        2546.00       0.125000       0.125000    
    1296       2578       2583    2580.00        2580.00       0.125000       0.125000    
    1297       2582       2584    2581.00        2581.00       0.125000       0.125000    
    1298       2583       2584    2581.00        2581.00       0.125000       0.125000    
    1299       2582       2585    2588.00        2588.00       0.125000       0.125000    
    1300       2583       2586    2595.00        2595.00       0.125000       0.125000    
    1301       2546       2588    2545.00        2545.00       0.125000       0.125000    
    1302       2546       2589    2547.00        2547.00       8.333330E-02   8.333330E-02
    1303       2609       2589    2547.00        2547.00       8.333330E-02   8.333330E-02
    1304       2609       2594    2611.00        2611.00       0.125000       0.125000    
    1305       2588       2590    2582.00        2582.00       0.125000       0.125000    
    1306       2588       2591    2589.00        2589.00       0.125000       0.125000    
    1307       2594       2591    2589.00        2589.00       0.125000       0.125000    
    1308       2594       2593    2606.00        2606.00       0.125000       0.125000    
    1309       2580       2595    2578.00        2578.00       0.125000       0.125000    
    1310       2643       2600    2642.00        2642.00       8.333330E-02   8.333330E-02
    1311       2580       2600    2642.00        2642.00       8.333330E-02   8.333330E-02
    1312       2643       2601    2644.00        2644.00       0.125000       0.125000    
    1313       2595       2596    2583.00        2583.00       0.125000       0.125000    
    1314       2601       2598    2600.00        2600.00       0.125000       0.125000    
    1315       2595       2598    2600.00        2600.00       0.125000       0.125000    
    1316       2601       2599    2607.00        2607.00       0.125000       0.125000    
    1317       2611       2606    2609.00        2609.00       0.125000       0.125000    
    1318       2644       2607    2643.00        2643.00       0.125000       0.125000    
    1319       2611       2608    2647.00        2647.00       8.333330E-02   8.333330E-02
    1320       2644       2608    2647.00        2647.00       8.333330E-02   8.333330E-02
    1321       2606       2603    2594.00        2594.00       0.125000       0.125000    
    1322       2607       2604    2601.00        2601.00       0.125000       0.125000    
    1323       2606       2605    2608.00        2608.00       0.125000       0.125000    
    1324       2607       2605    2608.00        2608.00       0.125000       0.125000    
    1325       2547       2609    2544.00        2546.00       0.166667       0.166667    
    1326       2547       2610    2548.00        2548.00       0.125000       0.125000    
    1327       2613       2610    2548.00        2548.00       0.125000       0.125000    
    1328       2647       2611    2644.00        2646.00       0.166667       0.166667    
    1329       2613       2612    2648.00        2648.00       0.125000       0.125000    
    1330       2647       2612    2648.00        2648.00       0.125000       0.125000    
    1331       2619       2620    2554.00        2554.00       0.125000       0.125000    
    1332       2619       2625    2654.00        2654.00       0.125000       0.125000    
    1333       2620       2621    2560.00        2560.00       0.125000       0.125000    
    1334       2630       2622    2567.00        2567.00       0.125000       0.125000    
    1335       2620       2623    2625.00        2625.00       0.125000       0.125000    
    1336       2630       2624    2632.00        2632.00       0.125000       0.125000    
    1337       2625       2626    2620.00        2620.00       0.125000       0.125000    
    1338       2632       2627    2630.00        2630.00       0.125000       0.125000    
    1339       2625       2628    2655.00        2655.00       0.125000       0.125000    
    1340       2632       2629    2665.00        2665.00       0.125000       0.125000    
    1341       2634       2631    2569.00        2569.00       0.125000       0.125000    
    1342       2634       2633    2669.00        2669.00       0.125000       0.125000    
    1343       2642       2643    2580.00        2579.00       0.166667       0.166667    
    1344       2647       2644    2612.00        2611.00       0.166667       0.166667    
    1345       2678       2645    2677.00        2677.00       0.125000       0.125000    
    1346       2642       2645    2677.00        2677.00       0.125000       0.125000    
    1347       2647       2646    2679.00        2679.00       0.125000       0.125000    
    1348       2678       2646    2679.00        2679.00       0.125000       0.125000    
    1349       2654       2655    2619.00        2619.00       0.125000       0.125000    
    1350       2654       2660    2686.00        2686.00       0.125000       0.125000    
    1351       2655       2656    2625.00        2625.00       0.125000       0.125000    
    1352       2665       2657    2632.00        2632.00       0.125000       0.125000    
    1353       2655       2658    2660.00        2660.00       0.125000       0.125000    
    1354       2665       2659    2667.00        2667.00       0.125000       0.125000    
    1355       2660       2661    2655.00        2655.00       0.125000       0.125000    
    1356       2667       2662    2665.00        2665.00       0.125000       0.125000    
    1357       2660       2663    2687.00        2687.00       0.125000       0.125000    
    1358       2667       2664    2697.00        2697.00       0.125000       0.125000    
    1359       2669       2666    2634.00        2634.00       0.125000       0.125000    
    1360       2669       2668    2701.00        2701.00       0.125000       0.125000    
    1361       2686       2687    2654.00        2654.00       0.125000       0.125000    
    1362       2686       2692    2718.00        2718.00       0.125000       0.125000    
    1363       2687       2688    2660.00        2660.00       0.125000       0.125000    
    1364       2697       2689    2667.00        2667.00       0.125000       0.125000    
    1365       2687       2690    2692.00        2692.00       0.125000       0.125000    
    1366       2697       2691    2699.00        2699.00       0.125000       0.125000    
    1367       2692       2693    2687.00        2687.00       0.125000       0.125000    
    1368       2699       2694    2697.00        2697.00       0.125000       0.125000    
    1369       2692       2695    2719.00        2719.00       0.125000       0.125000    
    1370       2699       2696    2729.00        2729.00       0.125000       0.125000    
    1371       2701       2698    2669.00        2669.00       0.125000       0.125000    
    1372       2701       2700    2733.00        2733.00       0.125000       0.125000    
    1373       2718       2719    2686.00        2686.00       0.125000       0.125000    
    1374       2718       2724    2753.00        2753.00       0.125000       0.125000    
    1375       2719       2720    2692.00        2692.00       0.125000       0.125000    
    1376       2729       2721    2699.00        2699.00       0.125000       0.125000    
    1377       2719       2722    2724.00        2724.00       0.125000       0.125000    
    1378       2729       2723    2731.00        2731.00       0.125000       0.125000    
    1379       2724       2725    2719.00        2719.00       0.125000       0.125000    
    1380       2731       2726    2729.00        2729.00       0.125000       0.125000    
    1381       2724       2727    2754.00        2754.00       0.125000       0.125000    
    1382       2731       2728    2764.00        2764.00       0.125000       0.125000    
    1383       2733       2730    2701.00        2701.00       0.125000       0.125000    
    1384       2733       2732    2768.00        2768.00       0.125000       0.125000    
    1385       2716       2748    2715.00        2715.00       0.125000       0.125000    
    1386       2747       2748    2715.00        2715.00       0.125000       0.125000    
    1387       2716       2749    2717.00        2717.00       0.125000       0.125000    
    1388       2752       2749    2717.00        2717.00       0.125000       0.125000    
    1389       2747       2750    2782.00        2783.00       0.166667       0.166667    
    1390       2752       2751    2814.00        2815.00       0.166667       0.166667    
    1391       2753       2754    2718.00        2718.00       0.125000       0.125000    
    1392       2753       2759    2818.00        2818.00       0.125000       0.125000    
    1393       2754       2755    2724.00        2724.00       0.125000       0.125000    
    1394       2764       2756    2731.00        2731.00       0.125000       0.125000    
    1395       2754       2757    2759.00        2759.00       0.125000       0.125000    
    1396       2764       2758    2766.00        2766.00       0.125000       0.125000    
    1397       2759       2760    2754.00        2754.00       0.125000       0.125000    
    1398       2766       2761    2764.00        2764.00       0.125000       0.125000    
    1399       2759       2762    2819.00        2819.00       0.125000       0.125000    
    1400       2766       2763    2829.00        2829.00       0.125000       0.125000    
    1401       2768       2765    2733.00        2733.00       0.125000       0.125000    
    1402       2768       2767    2833.00        2833.00       0.125000       0.125000    
    1403       2747       2782    2746.00        2746.00       0.125000       0.125000    
    1404       2781       2782    2746.00        2746.00       0.125000       0.125000    
    1405       2747       2783    2750.00        2748.00       0.166667       0.166667    
    1406       2847       2784    2846.00        2846.00       0.125000       0.125000    
    1407       2781       2784    2846.00        2846.00       0.125000       0.125000    
    1408       2847       2785    2850.00        2848.00       0.166667       0.166667    
    1409       2750       2786    2747.00        2747.00       8.333330E-02   8.333330E-02
    1410       2783       2786    2747.00        2747.00       8.333330E-02   8.333330E-02
    1411       2750       2787    2751.00        2751.00       0.125000       0.125000    
    1412       2783       2788    2785.00        2785.00       0.125000       0.125000    
    1413       2787       2789    2786.00        2786.00       0.125000       0.125000    
    1414       2788       2789    2786.00        2786.00       0.125000       0.125000    
    1415       2787       2790    2793.00        2793.00       0.125000       0.125000    
    1416       2788       2791    2800.00        2800.00       0.125000       0.125000    
    1417       2751       2793    2750.00        2750.00       0.125000       0.125000    
    1418       2751       2794    2752.00        2752.00       8.333330E-02   8.333330E-02
    1419       2814       2794    2752.00        2752.00       8.333330E-02   8.333330E-02
    1420       2814       2799    2816.00        2816.00       0.125000       0.125000    
    1421       2793       2795    2787.00        2787.00       0.125000       0.125000    
    1422       2793       2796    2794.00        2794.00       0.125000       0.125000    
    1423       2799       2796    2794.00        2794.00       0.125000       0.125000    
    1424       2799       2798    2811.00        2811.00       0.125000       0.125000    
    1425       2785       2800    2783.00        2783.00       0.125000       0.125000    
    1426       2848       2805    2847.00        2847.00       8.333330E-02   8.333330E-02
    1427       2785       2805    2847.00        2847.00       8.333330E-02   8.333330E-02
    1428       2848       2806    2849.00        2849.00       0.125000       0.125000    
    1429       2800       2801    2788.00        2788.00       0.125000       0.125000    
    1430       2806       2803    2805.00        2805.00       0.125000       0.125000    
    1431       2800       2803    2805.00        2805.00       0.125000       0.125000    
    1432       2806       2804    2812.00        2812.00       0.125000       0.125000    
    1433       2816       2811    2814.00        2814.00       0.125000       0.125000    
    1434       2849       2812    2848.00        2848.00       0.125000       0.125000    
    1435       2816       2813    2852.00        2852.00       8.333330E-02   8.333330E-02
    1436       2849       2813    2852.00        2852.00       8.333330E-02   8.333330E-02
    1437       2811       2808    2799.00        2799.00       0.125000       0.125000    
    1438       2812       2809    2806.00        2806.00       0.125000       0.125000    
    1439       2811       2810    2813.00        2813.00       0.125000       0.125000    
    1440       2812       2810    2813.00        2813.00       0.125000       0.125000    
    1441       2752       2814    2749.00        2751.00       0.166667       0.166667    
    1442       2752       2815    2753.00        2753.00       0.125000       0.125000    
    1443       2818       2815    2753.00        2753.00       0.125000       0.125000    
    1444       2852       2816    2849.00        2851.00       0.166667       0.166667    
    1445       2818       2817    2853.00        2853.00       0.125000       0.125000    
    1446       2852       2817    2853.00        2853.00       0.125000       0.125000    
    1447       2818       2819    2753.00        2753.00       0.125000       0.125000    
    1448       2818       2824    2853.00        2853.00       0.125000       0.125000    
    1449       2819       2820    2759.00        2759.00       0.125000       0.125000    
    1450       2829       2821    2766.00        2766.00       0.125000       0.125000    
    1451       2819       2822    2824.00        2824.00       0.125000       0.125000    
    1452       2829       2823    2831.00        2831.00       0.125000       0.125000    
    1453       2824       2825    2819.00        2819.00       0.125000       0.125000    
    1454       2831       2826    2829.00        2829.00       0.125000       0.125000    
    1455       2824       2827    2854.00        2854.00       0.125000       0.125000    
    1456       2831       2828    2864.00        2864.00       0.125000       0.125000    
    1457       2833       2830    2768.00        2768.00       0.125000       0.125000    
    1458       2833       2832    2868.00        2868.00       0.125000       0.125000    
    1459       2847       2848    2785.00        2784.00       0.166667       0.166667    
    1460       2852       2849    2817.00        2816.00       0.166667       0.166667    
    1461       2883       2850    2882.00        2882.00       0.125000       0.125000    
    1462       2847       2850    2882.00        2882.00       0.125000       0.125000    
    1463       2852       2851    2884.00        2884.00       0.125000       0.125000    
    1464       2883       2851    2884.00        2884.00       0.125000       0.125000    
    1465       2853       2854    2818.00        2818.00       0.125000       0.125000    
    1466       2853       2859    2885.00        2885.00       0.125000       0.125000    
    1467       2854       2855    2824.00        2824.00       0.125000       0.125000    
    1468       2864       2856    2831.00        2831.00       0.125000       0.125000    
    1469       2854       2857    2859.00        2859.00       0.125000       0.125000    
    1470       2864       2858    2866.00        2866.00       0.125000       0.125000    
    1471       2859       2860    2854.00        2854.00       0.125000       0.125000    
    1472       2866       2861    2864.00        2864.00       0.125000       0.125000    
    1473       2859       2862    2886.00        2886.00       0.125000       0.125000    
    1474       2866       2863    2896.00        2896.00       0.125000       0.125000    
    1475       2868       2865    2833.00        2833.00       0.125000       0.125000    
    1476       2868       2867    2900.00        2900.00       0.125000       0.125000    
    1477       2885       2886    2853.00        2853.00       0.125000       0.125000    
    1478       2885       2891    2917.00        2917.00       0.125000       0.125000    
    1479       2886       2887    2859.00        2859.00       0.125000       0.125000    
    1480       2896       2888    2866.00        2866.00       0.125000       0.125000    
    1481       2886       2889    2891.00        2891.00       0.125000       0.125000    
    1482       2896       2890    2898.00        2898.00       0.125000       0.125000    
    1483       2891       2892    2886.00        2886.00       0.125000       0.125000    
    1484       2898       2893    2896.00        2896.00       0.125000       0.125000    
    1485       2891       2894    2918.00        2918.00       0.125000       0.125000    
    1486       2898       2895    2928.00        2928.00       0.125000       0.125000    
    1487       2900       2897    2868.00        2868.00       0.125000       0.125000    
    1488       2900       2899    2932.00        2932.00       0.125000       0.125000    
    1489       2917       2918    2885.00        2885.00       0.125000       0.125000    
    1490       2917       2923    2949.00        2949.00       0.125000       0.125000    
    1491       2918       2919    2891.00        2891.00       0.125000       0.125000    
    1492       2928       2920    2898.00        2898.00       0.125000       0.125000    
    1493       2918       2921    2923.00        2923.00       0.125000       0.125000    
    1494       2928       2922    2930.00        2930.00       0.125000       0.125000    
    1495       2923       2924    2918.00        2918.00       0.125000       0.125000    
    1496       2930       2925    2928.00        2928.00       0.125000       0.125000    
    1497       2923       2926    2950.00        2950.00       0.125000       0.125000    
    1498       2930       2927    2960.00        2960.00       0.125000       0.125000    
    1499       2932       2929    2900.00        2900.00       0.125000       0.125000    
    1500       2932       2931    2964.00        2964.00       0.125000       0.125000    
    1501       2949       2950    2917.00        2917.00       0.125000       0.125000    
    1502       2949       2955    2981.00        2981.00       0.125000       0.125000    
    1503       2950       2951    2923.00        2923.00       0.125000       0.125000    
    1504       2960       2952    2930.00        2930.00       0.125000       0.125000    
    1505       2950       2953    2955.00        2955.00       0.125000       0.125000    
    1506       2960       2954    2962.00        2962.00       0.125000       0.125000    
    1507       2955       2956    2950.00        2950.00       0.125000       0.125000    
    1508       2962       2957    2960.00        2960.00       0.125000       0.125000    
    1509       2955       2958    2982.00        2982.00       0.125000       0.125000    
    1510       2962       2959    2992.00        2992.00       0.125000       0.125000    
    1511       2964       2961    2932.00        2932.00       0.125000       0.125000    
    1512       2964       2963    2996.00        2996.00       0.125000       0.125000    
    1513       2981       2982    2949.00        2949.00       0.125000       0.125000    
    1514       2982       2983    2955.00        2955.00       0.125000       0.125000    
    1515       2992       2984    2962.00        2962.00       0.125000       0.125000    
    1516       2982       2985    2987.00        2987.00       0.125000       0.125000    
    1517       2992       2986    2994.00        2994.00       0.125000       0.125000    
    1518       2987       2988    2982.00        2982.00       0.125000       0.125000    
    1519       2994       2989    2992.00        2992.00       0.125000       0.125000    
    1520       2996       2993    2964.00        2964.00       0.125000       0.125000    
    1521       3013       3019    3045.00        3045.00       0.125000       0.125000    
    1522       3014       3017    3019.00        3019.00       0.125000       0.125000    
    1523       3024       3018    3026.00        3026.00       0.125000       0.125000    
    1524       3019       3020    3014.00        3014.00       0.125000       0.125000    
    1525       3026       3021    3024.00        3024.00       0.125000       0.125000    
    1526       3019       3022    3046.00        3046.00       0.125000       0.125000    
    1527       3026       3023    3056.00        3056.00       0.125000       0.125000    
    1528       3028       3027    3060.00        3060.00       0.125000       0.125000    
    1529       3045       3046    3013.00        3013.00       0.125000       0.125000    
    1530       3045       3051    3077.00        3077.00       0.125000       0.125000    
    1531       3046       3047    3019.00        3019.00       0.125000       0.125000    
    1532       3056       3048    3026.00        3026.00       0.125000       0.125000    
    1533       3046       3049    3051.00        3051.00       0.125000       0.125000    
    1534       3056       3050    3058.00        3058.00       0.125000       0.125000    
    1535       3051       3052    3046.00        3046.00       0.125000       0.125000    
    1536       3058       3053    3056.00        3056.00       0.125000       0.125000    
    1537       3051       3054    3078.00        3078.00       0.125000       0.125000    
    1538       3058       3055    3088.00        3088.00       0.125000       0.125000    
    1539       3060       3057    3028.00        3028.00       0.125000       0.125000    
    1540       3060       3059    3092.00        3092.00       0.125000       0.125000    
    1541       3077       3078    3045.00        3045.00       0.125000       0.125000    
    1542       3077       3083    3109.00        3109.00       0.125000       0.125000    
    1543       3078       3079    3051.00        3051.00       0.125000       0.125000    
    1544       3088       3080    3058.00        3058.00       0.125000       0.125000    
    1545       3078       3081    3083.00        3083.00       0.125000       0.125000    
    1546       3088       3082    3090.00        3090.00       0.125000       0.125000    
    1547       3083       3084    3078.00        3078.00       0.125000       0.125000    
    1548       3090       3085    3088.00        3088.00       0.125000       0.125000    
    1549       3083       3086    3110.00        3110.00       0.125000       0.125000    
    1550       3090       3087    3120.00        3120.00       0.125000       0.125000    
    1551       3092       3089    3060.00        3060.00       0.125000       0.125000    
    1552       3092       3091    3124.00        3124.00       0.125000       0.125000    
    1553       3109       3110    3077.00        3077.00       0.125000       0.125000    
    1554       3109       3115    3141.00        3141.00       0.125000       0.125000    
    1555       3110       3111    3083.00        3083.00       0.125000       0.125000    
    1556       3120       3112    3090.00        3090.00       0.125000       0.125000    
    1557       3110       3113    3115.00        3115.00       0.125000       0.125000    
    1558       3120       3114    3122.00        3122.00       0.125000       0.125000    
    1559       3115       3116    3110.00        3110.00       0.125000       0.125000    
    1560       3122       3117    3120.00        3120.00       0.125000       0.125000    
    1561       3115       3118    3142.00        3142.00       0.125000       0.125000    
    1562       3122       3119    3152.00        3152.00       0.125000       0.125000    
    1563       3124       3121    3092.00        3092.00       0.125000       0.125000    
    1564       3124       3123    3156.00        3156.00       0.125000       0.125000    
    1565       3141       3142    3109.00        3109.00       0.125000       0.125000    
    1566       3141       3147    3173.00        3173.00       0.125000       0.125000    
    1567       3142       3143    3115.00        3115.00       0.125000       0.125000    
    1568       3152       3144    3122.00        3122.00       0.125000       0.125000    
    1569       3142       3145    3147.00        3147.00       0.125000       0.125000    
    1570       3152       3146    3154.00        3154.00       0.125000       0.125000    
    1571       3147       3148    3142.00        3142.00       0.125000       0.125000    
    1572       3154       3149    3152.00        3152.00       0.125000       0.125000    
    1573       3147       3150    3174.00        3174.00       0.125000       0.125000    
    1574       3154       3151    3184.00        3184.00       0.125000       0.125000    
    1575       3156       3153    3124.00        3124.00       0.125000       0.125000    
    1576       3156       3155    3188.00        3188.00       0.125000       0.125000    
    1577       3173       3174    3141.00        3141.00       0.125000       0.125000    
    1578       3173       3179    3205.00        3205.00       0.125000       0.125000    
    1579       3174       3175    3147.00        3147.00       0.125000       0.125000    
    1580       3184       3176    3154.00        3154.00       0.125000       0.125000    
    1581       3174       3177    3179.00        3179.00       0.125000       0.125000    
    1582       3184       3178    3186.00        3186.00       0.125000       0.125000    
    1583       3179       3180    3174.00        3174.00       0.125000       0.125000    
    1584       3186       3181    3184.00        3184.00       0.125000       0.125000    
    1585       3179       3182    3206.00        3206.00       0.125000       0.125000    
    1586       3186       3183    3216.00        3216.00       0.125000       0.125000    
    1587       3188       3185    3156.00        3156.00       0.125000       0.125000    
    1588       3188       3187    3220.00        3220.00       0.125000       0.125000    
    1589       3205       3206    3173.00        3173.00       0.125000       0.125000    
    1590       3205       3211    3237.00        3237.00       0.125000       0.125000    
    1591       3206       3207    3179.00        3179.00       0.125000       0.125000    
    1592       3216       3208    3186.00        3186.00       0.125000       0.125000    
    1593       3206       3209    3211.00        3211.00       0.125000       0.125000    
    1594       3216       3210    3218.00        3218.00       0.125000       0.125000    
    1595       3211       3212    3206.00        3206.00       0.125000       0.125000    
    1596       3218       3213    3216.00        3216.00       0.125000       0.125000    
    1597       3211       3214    3238.00        3238.00       0.125000       0.125000    
    1598       3218       3215    3248.00        3248.00       0.125000       0.125000    
    1599       3220       3217    3188.00        3188.00       0.125000       0.125000    
    1600       3220       3219    3252.00        3252.00       0.125000       0.125000    
    1601       3237       3238    3205.00        3205.00       0.125000       0.125000    
    1602       3237       3243    3269.00        3269.00       0.125000       0.125000    
    1603       3238       3239    3211.00        3211.00       0.125000       0.125000    
    1604       3248       3240    3218.00        3218.00       0.125000       0.125000    
    1605       3238       3241    3243.00        3243.00       0.125000       0.125000    
    1606       3248       3242    3250.00        3250.00       0.125000       0.125000    
    1607       3243       3244    3238.00        3238.00       0.125000       0.125000    
    1608       3250       3245    3248.00        3248.00       0.125000       0.125000    
    1609       3243       3246    3270.00        3270.00       0.125000       0.125000    
    1610       3250       3247    3280.00        3280.00       0.125000       0.125000    
    1611       3252       3249    3220.00        3220.00       0.125000       0.125000    
    1612       3252       3251    3284.00        3284.00       0.125000       0.125000    
    1613       3269       3270    3237.00        3237.00       0.125000       0.125000    
    1614       3269       3275    3301.00        3301.00       0.125000       0.125000    
    1615       3270       3271    3243.00        3243.00       0.125000       0.125000    
    1616       3280       3272    3250.00        3250.00       0.125000       0.125000    
    1617       3270       3273    3275.00        3275.00       0.125000       0.125000    
    1618       3280       3274    3282.00        3282.00       0.125000       0.125000    
    1619       3275       3276    3270.00        3270.00       0.125000       0.125000    
    1620       3282       3277    3280.00        3280.00       0.125000       0.125000    
    1621       3275       3278    3302.00        3302.00       0.125000       0.125000    
    1622       3282       3279    3312.00        3313.00       0.166667       0.166667    
    1623       3284       3281    3252.00        3252.00       0.125000       0.125000    
    1624       3284       3283    3340.00        3341.00       0.166667       0.166667    
    1625       3301       3302    3269.00        3269.00       0.125000       0.125000    
    1626       3301       3307    3363.00        3363.00       0.125000       0.125000    
    1627       3302       3303    3275.00        3275.00       0.125000       0.125000    
    1628       3302       3305    3307.00        3307.00       0.125000       0.125000    
    1629       3307       3308    3302.00        3302.00       0.125000       0.125000    
    1630       3307       3310    3364.00        3364.00       0.125000       0.125000    
    1631       3282       3312    3277.00        3279.00       0.166667       0.166667    
    1632       3282       3313    3283.00        3283.00       0.125000       0.125000    
    1633       3313       3315    3312.00        3312.00       0.125000       0.125000    
    1634       3314       3315    3312.00        3312.00       0.125000       0.125000    
    1635       3313       3316    3319.00        3319.00       0.125000       0.125000    
    1636       3314       3317    3326.00        3326.00       0.125000       0.125000    
    1637       3283       3319    3282.00        3282.00       0.125000       0.125000    
    1638       3283       3320    3284.00        3284.00       8.333330E-02   8.333330E-02
    1639       3340       3320    3284.00        3284.00       8.333330E-02   8.333330E-02
    1640       3340       3325    3342.00        3342.00       0.125000       0.125000    
    1641       3319       3321    3313.00        3313.00       0.125000       0.125000    
    1642       3319       3322    3320.00        3320.00       0.125000       0.125000    
    1643       3325       3322    3320.00        3320.00       0.125000       0.125000    
    1644       3325       3324    3337.00        3337.00       0.125000       0.125000    
    1645       3374       3331    3366.00        3368.00       0.166667       0.166667    
    1646       3374       3332    3375.00        3375.00       0.125000       0.125000    
    1647       3326       3327    3314.00        3314.00       0.125000       0.125000    
    1648       3332       3329    3331.00        3331.00       0.125000       0.125000    
    1649       3326       3329    3331.00        3331.00       0.125000       0.125000    
    1650       3332       3330    3338.00        3338.00       0.125000       0.125000    
    1651       3342       3337    3340.00        3340.00       0.125000       0.125000    
    1652       3375       3338    3374.00        3374.00       0.125000       0.125000    
    1653       3342       3339    3378.00        3378.00       8.333330E-02   8.333330E-02
    1654       3375       3339    3378.00        3378.00       8.333330E-02   8.333330E-02
    1655       3337       3334    3325.00        3325.00       0.125000       0.125000    
    1656       3338       3335    3332.00        3332.00       0.125000       0.125000    
    1657       3337       3336    3339.00        3339.00       0.125000       0.125000    
    1658       3338       3336    3339.00        3339.00       0.125000       0.125000    
    1659       3284       3340    3281.00        3283.00       0.166667       0.166667    
    1660       3284       3341    3285.00        3285.00       0.125000       0.125000    
    1661       3344       3341    3285.00        3285.00       0.125000       0.125000    
    1662       3378       3342    3375.00        3377.00       0.166667       0.166667    
    1663       3344       3343    3379.00        3379.00       0.125000       0.125000    
    1664       3378       3343    3379.00        3379.00       0.125000       0.125000    
    1665       3300       3359    3299.00        3299.00       0.125000       0.125000    
    1666       3358       3359    3299.00        3299.00       0.125000       0.125000    
    1667       3300       3360    3301.00        3301.00       0.125000       0.125000    
    1668       3363       3360    3301.00        3301.00       0.125000       0.125000    
    1669       3358       3361    3393.00        3394.00       0.166667       0.166667    
    1670       3363       3362    3425.00        3426.00       0.166667       0.166667    
    1671       3363       3364    3301.00        3301.00       0.125000       0.125000    
    1672       3363       3369    3425.00        3426.00       0.166667       0.166667    
    1673       3364       3365    3307.00        3307.00       0.125000       0.125000    
    1674       3374       3366    3332.00        3331.00       0.166667       0.166667    
    1675       3364       3367    3369.00        3369.00       0.125000       0.125000    
    1676       3374       3368    3376.00        3376.00       0.125000       0.125000    
    1677       3369       3370    3364.00        3364.00       0.125000       0.125000    
    1678       3376       3371    3374.00        3374.00       0.125000       0.125000    
    1679       3369       3372    3429.00        3429.00       0.125000       0.125000    
    1680       3376       3373    3439.00        3439.00       0.125000       0.125000    
    1681       3378       3375    3343.00        3342.00       0.166667       0.166667    
    1682       3378       3377    3443.00        3443.00       0.125000       0.125000    
    1683       3358       3393    3357.00        3357.00       0.125000       0.125000    
    1684       3392       3393    3357.00        3357.00       0.125000       0.125000    
    1685       3358       3394    3361.00        3359.00       0.166667       0.166667    
    1686       3458       3395    3457.00        3457.00       0.125000       0.125000    
    1687       3392       3395    3457.00        3457.00       0.125000       0.125000    
    1688       3458       3396    3461.00        3459.00       0.166667       0.166667    
    1689       3361       3397    3358.00        3358.00       8.333330E-02   8.333330E-02
    1690       3394       3397    3358.00        3358.00       8.333330E-02   8.333330E-02
    1691       3361       3398    3362.00        3362.00       0.125000       0.125000    
    1692       3394       3399    3396.00        3396.00       0.125000       0.125000    
    1693       3398       3400    3397.00        3397.00       0.125000       0.125000    
    1694       3399       3400    3397.00        3397.00       0.125000       0.125000    
    1695       3398       3401    3404.00        3404.00       0.125000       0.125000    
    1696       3399       3402    3411.00        3411.00       0.125000       0.125000    
    1697       3362       3404    3361.00        3361.00       0.125000       0.125000    
    1698       3362       3405    3363.00        3363.00       8.333330E-02   8.333330E-02
    1699       3425       3405    3363.00        3363.00       8.333330E-02   8.333330E-02
    1700       3425       3410    3427.00        3427.00       0.125000       0.125000    
    1701       3404       3406    3398.00        3398.00       0.125000       0.125000    
    1702       3404       3407    3405.00        3405.00       0.125000       0.125000    
    1703       3410       3407    3405.00        3405.00       0.125000       0.125000    
    1704       3410       3409    3422.00        3422.00       0.125000       0.125000    
    1705       3396       3411    3394.00        3394.00       0.125000       0.125000    
    1706       3459       3416    3458.00        3458.00       8.333330E-02   8.333330E-02
    1707       3396       3416    3458.00        3458.00       8.333330E-02   8.333330E-02
    1708       3459       3417    3460.00        3460.00       0.125000       0.125000    
    1709       3411       3412    3399.00        3399.00       0.125000       0.125000    
    1710       3417       3414    3416.00        3416.00       0.125000       0.125000    
    1711       3411       3414    3416.00        3416.00       0.125000       0.125000    
    1712       3417       3415    3423.00        3423.00       0.125000       0.125000    
    1713       3427       3422    3425.00        3425.00       0.125000       0.125000    
    1714       3460       3423    3459.00        3459.00       0.125000       0.125000    
    1715       3427       3424    3463.00        3463.00       8.333330E-02   8.333330E-02
    1716       3460       3424    3463.00        3463.00       8.333330E-02   8.333330E-02
    1717       3422       3419    3410.00        3410.00       0.125000       0.125000    
    1718       3423       3420    3417.00        3417.00       0.125000       0.125000    
    1719       3422       3421    3424.00        3424.00       0.125000       0.125000    
    1720       3423       3421    3424.00        3424.00       0.125000       0.125000    
    1721       3363       3425    3360.00        3362.00       0.166667       0.166667    
    1722       3363       3426    3369.00        3364.00       0.166667       0.166667    
    1723       3463       3427    3460.00        3462.00       0.166667       0.166667    
    1724       3463       3428    3469.00        3464.00       0.166667       0.166667    
    1725       3429       3430    3369.00        3369.00       0.125000       0.125000    
    1726       3439       3431    3376.00        3376.00       0.125000       0.125000    
    1727       3429       3432    3434.00        3434.00       0.125000       0.125000    
    1728       3439       3433    3441.00        3441.00       0.125000       0.125000    
    1729       3434       3435    3429.00        3429.00       0.125000       0.125000    
    1730       3441       3436    3439.00        3439.00       0.125000       0.125000    
    1731       3434       3437    3464.00        3464.00       0.125000       0.125000    
    1732       3441       3438    3474.00        3474.00       0.125000       0.125000    
    1733       3443       3440    3378.00        3378.00       0.125000       0.125000    
    1734       3443       3442    3478.00        3478.00       0.125000       0.125000    
    1735       3458       3459    3396.00        3395.00       0.166667       0.166667    
    1736       3463       3460    3428.00        3427.00       0.166667       0.166667    
    1737       3494       3461    3493.00        3493.00       0.125000       0.125000    
    1738       3458       3461    3493.00        3493.00       0.125000       0.125000    
    1739       3463       3462    3495.00        3495.00       0.125000       0.125000    
    1740       3494       3462    3495.00        3495.00       0.125000       0.125000    
    1741       3463       3464    3428.00        3427.00       0.166667       0.166667    
    1742       3463       3469    3495.00        3495.00       0.125000       0.125000    
    1743       3464       3465    3434.00        3434.00       0.125000       0.125000    
    1744       3474       3466    3441.00        3441.00       0.125000       0.125000    
    1745       3464       3467    3469.00        3469.00       0.125000       0.125000    
    1746       3474       3468    3476.00        3476.00       0.125000       0.125000    
    1747       3469       3470    3464.00        3464.00       0.125000       0.125000    
    1748       3476       3471    3474.00        3474.00       0.125000       0.125000    
    1749       3469       3472    3496.00        3496.00       0.125000       0.125000    
    1750       3476       3473    3506.00        3506.00       0.125000       0.125000    
    1751       3478       3475    3443.00        3443.00       0.125000       0.125000    
    1752       3478       3477    3510.00        3510.00       0.125000       0.125000    
    1753       3495       3496    3463.00        3463.00       0.125000       0.125000    
    1754       3495       3501    3527.00        3527.00       0.125000       0.125000    
    1755       3496       3497    3469.00        3469.00       0.125000       0.125000    
    1756       3506       3498    3476.00        3476.00       0.125000       0.125000    
    1757       3496       3499    3501.00        3501.00       0.125000       0.125000    
    1758       3506       3500    3508.00        3508.00       0.125000       0.125000    
    1759       3501       3502    3496.00        3496.00       0.125000       0.125000    
    1760       3508       3503    3506.00        3506.00       0.125000       0.125000    
    1761       3501       3504    3528.00        3528.00       0.125000       0.125000    
    1762       3508       3505    3538.00        3538.00       0.125000       0.125000    
    1763       3510       3507    3478.00        3478.00       0.125000       0.125000    
    1764       3510       3509    3542.00        3542.00       0.125000       0.125000    
    1765       3527       3528    3495.00        3495.00       0.125000       0.125000    
    1766       3527       3533    3559.00        3559.00       0.125000       0.125000    
    1767       3528       3529    3501.00        3501.00       0.125000       0.125000    
    1768       3538       3530    3508.00        3508.00       0.125000       0.125000    
    1769       3528       3531    3533.00        3533.00       0.125000       0.125000    
    1770       3538       3532    3540.00        3540.00       0.125000       0.125000    
    1771       3533       3534    3528.00        3528.00       0.125000       0.125000    
    1772       3540       3535    3538.00        3538.00       0.125000       0.125000    
    1773       3533       3536    3560.00        3560.00       0.125000       0.125000    
    1774       3540       3537    3570.00        3570.00       0.125000       0.125000    
    1775       3542       3539    3510.00        3510.00       0.125000       0.125000    
    1776       3542       3541    3574.00        3574.00       0.125000       0.125000    
    1777       3559       3560    3527.00        3527.00       0.125000       0.125000    
    1778       3559       3565    3591.00        3591.00       0.125000       0.125000    
    1779       3560       3561    3533.00        3533.00       0.125000       0.125000    
    1780       3570       3562    3540.00        3540.00       0.125000       0.125000    
    1781       3560       3563    3565.00        3565.00       0.125000       0.125000    
    1782       3570       3564    3572.00        3572.00       0.125000       0.125000    
    1783       3565       3566    3560.00        3560.00       0.125000       0.125000    
    1784       3572       3567    3570.00        3570.00       0.125000       0.125000    
    1785       3565       3568    3592.00        3592.00       0.125000       0.125000    
    1786       3572       3569    3602.00        3602.00       0.125000       0.125000    
    1787       3574       3571    3542.00        3542.00       0.125000       0.125000    
    1788       3574       3573    3606.00        3606.00       0.125000       0.125000    
    1789       3591       3592    3559.00        3559.00       0.125000       0.125000    
    1790       3591       3597    3623.00        3623.00       0.125000       0.125000    
    1791       3592       3593    3565.00        3565.00       0.125000       0.125000    
    1792       3602       3594    3572.00        3572.00       0.125000       0.125000    
    1793       3592       3595    3597.00        3597.00       0.125000       0.125000    
    1794       3602       3596    3604.00        3604.00       0.125000       0.125000    
    1795       3597       3598    3592.00        3592.00       0.125000       0.125000    
    1796       3604       3599    3602.00        3602.00       0.125000       0.125000    
    1797       3597       3600    3624.00        3624.00       0.125000       0.125000    
    1798       3604       3601    3634.00        3634.00       0.125000       0.125000    
    1799       3606       3603    3574.00        3574.00       0.125000       0.125000    
    1800       3606       3605    3638.00        3638.00       0.125000       0.125000    
    1801       3623       3624    3591.00        3591.00       0.125000       0.125000    
    1802       3623       3629    3655.00        3655.00       0.125000       0.125000    
    1803       3624       3625    3597.00        3597.00       0.125000       0.125000    
    1804       3634       3626    3604.00        3604.00       0.125000       0.125000    
    1805       3624       3627    3629.00        3629.00       0.125000       0.125000    
    1806       3634       3628    3636.00        3636.00       0.125000       0.125000    
    1807       3629       3630    3624.00        3624.00       0.125000       0.125000    
    1808       3636       3631    3634.00        3634.00       0.125000       0.125000    
    1809       3629       3632    3656.00        3656.00       0.125000       0.125000    
    1810       3636       3633    3666.00        3666.00       0.125000       0.125000    
    1811       3638       3635    3606.00        3606.00       0.125000       0.125000    
    1812       3638       3637    3670.00        3670.00       0.125000       0.125000    
    1813       3655       3656    3623.00        3623.00       0.125000       0.125000    
    1814       3655       3661    3687.00        3688.00       0.166667       0.166667    
    1815       3656       3657    3629.00        3629.00       0.125000       0.125000    
    1816       3666       3658    3636.00        3636.00       0.125000       0.125000    
    1817       3656       3659    3661.00        3661.00       0.125000       0.125000    
    1818       3666       3660    3668.00        3668.00       0.125000       0.125000    
    1819       3661       3662    3656.00        3656.00       0.125000       0.125000    
    1820       3668       3663    3666.00        3666.00       0.125000       0.125000    
    1821       3661       3664    3691.00        3691.00       0.125000       0.125000    
    1822       3668       3665    3701.00        3701.00       0.125000       0.125000    
    1823       3670       3667    3638.00        3638.00       0.125000       0.125000    
    1824       3670       3669    3705.00        3705.00       0.125000       0.125000    
    1825       3655       3687    3654.00        3654.00       0.125000       0.125000    
    1826       3686       3687    3654.00        3654.00       0.125000       0.125000    
    1827       3655       3688    3661.00        3656.00       0.166667       0.166667    
    1828       3686       3689    3721.00        3722.00       0.166667       0.166667    
    1829       3691       3692    3661.00        3661.00       0.125000       0.125000    
    1830       3701       3693    3668.00        3668.00       0.125000       0.125000    
    1831       3691       3694    3696.00        3696.00       0.125000       0.125000    
    1832       3701       3695    3703.00        3703.00       0.125000       0.125000    
    1833       3696       3697    3691.00        3691.00       0.125000       0.125000    
    1834       3703       3698    3701.00        3701.00       0.125000       0.125000    
    1835       3696       3699    3753.00        3753.00       0.125000       0.125000    
    1836       3703       3700    3763.00        3763.00       0.125000       0.125000    
    1837       3705       3702    3670.00        3670.00       0.125000       0.125000    
    1838       3705       3704    3767.00        3767.00       0.125000       0.125000    
    1839       3686       3721    3685.00        3685.00       0.125000       0.125000    
    1840       3720       3721    3685.00        3685.00       0.125000       0.125000    
    1841       3686       3722    3689.00        3687.00       0.166667       0.166667    
    1842       3783       3723    3782.00        3782.00       0.125000       0.125000    
    1843       3720       3723    3782.00        3782.00       0.125000       0.125000    
    1844       3783       3724    3786.00        3784.00       0.166667       0.166667    
    1845       3689       3725    3686.00        3686.00       8.333330E-02   8.333330E-02
    1846       3722       3725    3686.00        3686.00       8.333330E-02   8.333330E-02
    1847       3689       3726    3690.00        3690.00       0.125000       0.125000    
    1848       3722       3727    3724.00        3724.00       0.125000       0.125000    
    1849       3726       3728    3725.00        3725.00       0.125000       0.125000    
    1850       3727       3728    3725.00        3725.00       0.125000       0.125000    
    1851       3726       3729    3732.00        3732.00       0.125000       0.125000    
    1852       3727       3730    3739.00        3739.00       0.125000       0.125000    
    1853       3690       3732    3689.00        3689.00       0.125000       0.125000    
    1854       3690       3733    3696.00        3696.00       0.125000       0.125000    
    1855       3753       3733    3696.00        3696.00       0.125000       0.125000    
    1856       3753       3738    3758.00        3758.00       0.125000       0.125000    
    1857       3732       3734    3726.00        3726.00       0.125000       0.125000    
    1858       3732       3735    3733.00        3733.00       0.125000       0.125000    
    1859       3738       3735    3733.00        3733.00       0.125000       0.125000    
    1860       3738       3737    3750.00        3750.00       0.125000       0.125000    
    1861       3724       3739    3722.00        3722.00       0.125000       0.125000    
    1862       3784       3744    3783.00        3783.00       8.333330E-02   8.333330E-02
    1863       3724       3744    3783.00        3783.00       8.333330E-02   8.333330E-02
    1864       3784       3745    3785.00        3785.00       0.125000       0.125000    
    1865       3739       3740    3727.00        3727.00       0.125000       0.125000    
    1866       3745       3742    3744.00        3744.00       0.125000       0.125000    
    1867       3739       3742    3744.00        3744.00       0.125000       0.125000    
    1868       3745       3743    3751.00        3751.00       0.125000       0.125000    
    1869       3758       3750    3753.00        3753.00       0.125000       0.125000    
    1870       3785       3751    3784.00        3784.00       0.125000       0.125000    
    1871       3758       3752    3788.00        3788.00       0.125000       0.125000    
    1872       3785       3752    3788.00        3788.00       0.125000       0.125000    
    1873       3750       3747    3738.00        3738.00       0.125000       0.125000    
    1874       3751       3748    3745.00        3745.00       0.125000       0.125000    
    1875       3750       3749    3752.00        3752.00       0.125000       0.125000    
    1876       3751       3749    3752.00        3752.00       0.125000       0.125000    
    1877       3753       3754    3696.00        3696.00       0.125000       0.125000    
    1878       3763       3755    3703.00        3703.00       0.125000       0.125000    
    1879       3753       3756    3758.00        3758.00       0.125000       0.125000    
    1880       3763       3757    3765.00        3765.00       0.125000       0.125000    
    1881       3758       3759    3753.00        3753.00       0.125000       0.125000    
    1882       3765       3760    3763.00        3763.00       0.125000       0.125000    
    1883       3758       3761    3788.00        3788.00       0.125000       0.125000    
    1884       3765       3762    3798.00        3798.00       0.125000       0.125000    
    1885       3767       3764    3705.00        3705.00       0.125000       0.125000    
    1886       3767       3766    3802.00        3802.00       0.125000       0.125000    
    1887       3783       3784    3724.00        3723.00       0.166667       0.166667    
    1888       3819       3786    3818.00        3818.00       0.125000       0.125000    
    1889       3783       3786    3818.00        3818.00       0.125000       0.125000    
    1890       3819       3787    3825.00        3820.00       0.166667       0.166667    
    1891       3788       3789    3758.00        3758.00       0.125000       0.125000    
    1892       3798       3790    3765.00        3765.00       0.125000       0.125000    
    1893       3788       3791    3793.00        3793.00       0.125000       0.125000    
    1894       3798       3792    3800.00        3800.00       0.125000       0.125000    
    1895       3793       3794    3788.00        3788.00       0.125000       0.125000    
    1896       3800       3795    3798.00        3798.00       0.125000       0.125000    
    1897       3793       3796    3820.00        3820.00       0.125000       0.125000    
    1898       3800       3797    3830.00        3830.00       0.125000       0.125000    
    1899       3802       3799    3767.00        3767.00       0.125000       0.125000    
    1900       3802       3801    3834.00        3834.00       0.125000       0.125000    
    1901       3819       3820    3787.00        3786.00       0.166667       0.166667    
    1902       3819       3825    3851.00        3851.00       0.125000       0.125000    
    1903       3820       3821    3793.00        3793.00       0.125000       0.125000    
    1904       3830       3822    3800.00        3800.00       0.125000       0.125000    
    1905       3820       3823    3825.00        3825.00       0.125000       0.125000    
    1906       3830       3824    3832.00        3832.00       0.125000       0.125000    
    1907       3825       3826    3820.00        3820.00       0.125000       0.125000    
    1908       3832       3827    3830.00        3830.00       0.125000       0.125000    
    1909       3825       3828    3852.00        3852.00       0.125000       0.125000    
    1910       3832       3829    3862.00        3862.00       0.125000       0.125000    
    1911       3834       3831    3802.00        3802.00       0.125000       0.125000    
    1912       3834       3833    3866.00        3866.00       0.125000       0.125000    
    1913       3851       3852    3819.00        3819.00       0.125000       0.125000    
    1914       3851       3857    3883.00        3883.00       0.125000       0.125000    
    1915       3852       3853    3825.00        3825.00       0.125000       0.125000    
    1916       3862       3854    3832.00        3832.00       0.125000       0.125000    
    1917       3852       3855    3857.00        3857.00       0.125000       0.125000    
    1918       3862       3856    3864.00        3864.00       0.125000       0.125000    
    1919       3857       3858    3852.00        3852.00       0.125000       0.125000    
    1920       3864       3859    3862.00        3862.00       0.125000       0.125000    
    1921       3857       3860    3884.00        3884.00       0.125000       0.125000    
    1922       3864       3861    3894.00        3894.00       0.125000       0.125000    
    1923       3866       3863    3834.00        3834.00       0.125000       0.125000    
    1924       3866       3865    3898.00        3898.00       0.125000       0.125000    
    1925       3883       3884    3851.00        3851.00       0.125000       0.125000    
    1926       3883       3889    3918.00        3918.00       0.125000       0.125000    
    1927       3884       3885    3857.00        3857.00       0.125000       0.125000    
    1928       3894       3886    3864.00        3864.00       0.125000       0.125000    
    1929       3884       3887    3889.00        3889.00       0.125000       0.125000    
    1930       3894       3888    3896.00        3896.00       0.125000       0.125000    
    1931       3889       3890    3884.00        3884.00       0.125000       0.125000    
    1932       3896       3891    3894.00        3894.00       0.125000       0.125000    
    1933       3889       3892    3919.00        3919.00       0.125000       0.125000    
    1934       3896       3893    3929.00        3929.00       0.125000       0.125000    
    1935       3898       3895    3866.00        3866.00       0.125000       0.125000    
    1936       3898       3897    3933.00        3933.00       0.125000       0.125000    
    1937       3879       3911    3878.00        3878.00       0.125000       0.125000    
    1938       3910       3911    3878.00        3878.00       0.125000       0.125000    
    1939       3879       3912    3880.00        3880.00       0.125000       0.125000    
    1940       3915       3912    3880.00        3880.00       0.125000       0.125000    
    1941       3910       3913    3945.00        3946.00       0.166667       0.166667    
    1942       3915       3914    3977.00        3978.00       0.166667       0.166667    
    1943       3918       3919    3883.00        3883.00       0.125000       0.125000    
    1944       3918       3924    3983.00        3983.00       0.125000       0.125000    
    1945       3919       3920    3889.00        3889.00       0.125000       0.125000    
    1946       3929       3921    3896.00        3896.00       0.125000       0.125000    
    1947       3919       3922    3924.00        3924.00       0.125000       0.125000    
    1948       3929       3923    3931.00        3931.00       0.125000       0.125000    
    1949       3924       3925    3919.00        3919.00       0.125000       0.125000    
    1950       3931       3926    3929.00        3929.00       0.125000       0.125000    
    1951       3924       3927    3984.00        3984.00       0.125000       0.125000    
    1952       3931       3928    3994.00        3994.00       0.125000       0.125000    
    1953       3933       3930    3898.00        3898.00       0.125000       0.125000    
    1954       3933       3932    3998.00        3998.00       0.125000       0.125000    
    1955       3910       3945    3909.00        3909.00       0.125000       0.125000    
    1956       3944       3945    3909.00        3909.00       0.125000       0.125000    
    1957       3910       3946    3913.00        3911.00       0.166667       0.166667    
    1958       4010       3947    4009.00        4009.00       0.125000       0.125000    
    1959       3944       3947    4009.00        4009.00       0.125000       0.125000    
    1960       4010       3948    4013.00        4011.00       0.166667       0.166667    
    1961       3913       3949    3910.00        3910.00       8.333330E-02   8.333330E-02
    1962       3946       3949    3910.00        3910.00       8.333330E-02   8.333330E-02
    1963       3913       3950    3914.00        3914.00       0.125000       0.125000    
    1964       3946       3951    3948.00        3948.00       0.125000       0.125000    
    1965       3950       3952    3949.00        3949.00       0.125000       0.125000    
    1966       3951       3952    3949.00        3949.00       0.125000       0.125000    
    1967       3950       3953    3956.00        3956.00       0.125000       0.125000    
    1968       3951       3954    3963.00        3963.00       0.125000       0.125000    
    1969       3914       3956    3913.00        3913.00       0.125000       0.125000    
    1970       3914       3957    3915.00        3915.00       8.333330E-02   8.333330E-02
    1971       3977       3957    3915.00        3915.00       8.333330E-02   8.333330E-02
    1972       3977       3962    3979.00        3979.00       0.125000       0.125000    
    1973       3956       3958    3950.00        3950.00       0.125000       0.125000    
    1974       3956       3959    3957.00        3957.00       0.125000       0.125000    
    1975       3962       3959    3957.00        3957.00       0.125000       0.125000    
    1976       3962       3961    3974.00        3974.00       0.125000       0.125000    
    1977       3948       3963    3946.00        3946.00       0.125000       0.125000    
    1978       4011       3968    4010.00        4010.00       8.333330E-02   8.333330E-02
    1979       3948       3968    4010.00        4010.00       8.333330E-02   8.333330E-02
    1980       4011       3969    4012.00        4012.00       0.125000       0.125000    
    1981       3963       3964    3951.00        3951.00       0.125000       0.125000    
    1982       3969       3966    3968.00        3968.00       0.125000       0.125000    
    1983       3963       3966    3968.00        3968.00       0.125000       0.125000    
    1984       3969       3967    3975.00        3975.00       0.125000       0.125000    
    1985       3979       3974    3977.00        3977.00       0.125000       0.125000    
    1986       4012       3975    4011.00        4011.00       0.125000       0.125000    
    1987       3979       3976    4015.00        4015.00       8.333330E-02   8.333330E-02
    1988       4012       3976    4015.00        4015.00       8.333330E-02   8.333330E-02
    1989       3974       3971    3962.00        3962.00       0.125000       0.125000    
    1990       3975       3972    3969.00        3969.00       0.125000       0.125000    
    1991       3974       3973    3976.00        3976.00       0.125000       0.125000    
    1992       3975       3973    3976.00        3976.00       0.125000       0.125000    
    1993       3915       3977    3912.00        3914.00       0.166667       0.166667    
    1994       3915       3978    3916.00        3916.00       0.125000       0.125000    
    1995       3981       3978    3916.00        3916.00       0.125000       0.125000    
    1996       4015       3979    4012.00        4014.00       0.166667       0.166667    
    1997       3981       3980    4016.00        4016.00       0.125000       0.125000    
    1998       4015       3980    4016.00        4016.00       0.125000       0.125000    
    1999       3983       3984    3918.00        3918.00       0.125000       0.125000    
    2000       3983       3989    4018.00        4018.00       0.125000       0.125000    
    2001       3984       3985    3924.00        3924.00       0.125000       0.125000    
    2002       3994       3986    3931.00        3931.00       0.125000       0.125000    
    2003       3984       3987    3989.00        3989.00       0.125000       0.125000    
    2004       3994       3988    3996.00        3996.00       0.125000       0.125000    
    2005       3989       3990    3984.00        3984.00       0.125000       0.125000    
    2006       3996       3991    3994.00        3994.00       0.125000       0.125000    
    2007       3989       3992    4019.00        4019.00       0.125000       0.125000    
    2008       3996       3993    4029.00        4029.00       0.125000       0.125000    
    2009       3998       3995    3933.00        3933.00       0.125000       0.125000    
    2010       3998       3997    4033.00        4033.00       0.125000       0.125000    
    2011       4010       4011    3948.00        3947.00       0.166667       0.166667    
    2012       4015       4012    3980.00        3979.00       0.166667       0.166667    
    2013       4049       4013    4048.00        4048.00       0.125000       0.125000    
    2014       4010       4013    4048.00        4048.00       0.125000       0.125000    
    2015       4015       4014    4050.00        4050.00       0.125000       0.125000    
    2016       4049       4014    4050.00        4050.00       0.125000       0.125000    
    2017       4018       4019    3983.00        3983.00       0.125000       0.125000    
    2018       4018       4024    4053.00        4053.00       0.125000       0.125000    
    2019       4019       4020    3989.00        3989.00       0.125000       0.125000    
    2020       4029       4021    3996.00        3996.00       0.125000       0.125000    
    2021       4019       4022    4024.00        4024.00       0.125000       0.125000    
    2022       4029       4023    4031.00        4031.00       0.125000       0.125000    
    2023       4024       4025    4019.00        4019.00       0.125000       0.125000    
    2024       4031       4026    4029.00        4029.00       0.125000       0.125000    
    2025       4024       4027    4054.00        4054.00       0.125000       0.125000    
    2026       4031       4028    4064.00        4064.00       0.125000       0.125000    
    2027       4033       4030    3998.00        3998.00       0.125000       0.125000    
    2028       4033       4032    4068.00        4068.00       0.125000       0.125000    
    2029       4007       4042    4006.00        4006.00       0.125000       0.125000    
    2030       4041       4042    4006.00        4006.00       0.125000       0.125000    
    2031       4007       4043    4008.00        4008.00       0.125000       0.125000    
    2032       4046       4043    4008.00        4008.00       0.125000       0.125000    
    2033       4041       4044    4076.00        4077.00       0.166667       0.166667    
    2034       4046       4045    4108.00        4109.00       0.166667       0.166667    
    2035       4053       4054    4018.00        4018.00       0.125000       0.125000    
    2036       4053       4059    4118.00        4118.00       0.125000       0.125000    
    2037       4054       4055    4024.00        4024.00       0.125000       0.125000    
    2038       4064       4056    4031.00        4031.00       0.125000       0.125000    
    2039       4054       4057    4059.00        4059.00       0.125000       0.125000    
    2040       4064       4058    4066.00        4066.00       0.125000       0.125000    
    2041       4059       4060    4054.00        4054.00       0.125000       0.125000    
    2042       4066       4061    4064.00        4064.00       0.125000       0.125000    
    2043       4059       4062    4119.00        4119.00       0.125000       0.125000    
    2044       4066       4063    4129.00        4129.00       0.125000       0.125000    
    2045       4068       4065    4033.00        4033.00       0.125000       0.125000    
    2046       4068       4067    4133.00        4133.00       0.125000       0.125000    
    2047       4041       4076    4040.00        4040.00       0.125000       0.125000    
    2048       4075       4076    4040.00        4040.00       0.125000       0.125000    
    2049       4041       4077    4044.00        4042.00       0.166667       0.166667    
    2050       4141       4078    4140.00        4140.00       0.125000       0.125000    
    2051       4075       4078    4140.00        4140.00       0.125000       0.125000    
    2052       4141       4079    4144.00        4142.00       0.166667       0.166667    
    2053       4044       4080    4041.00        4041.00       8.333330E-02   8.333330E-02
    2054       4077       4080    4041.00        4041.00       8.333330E-02   8.333330E-02
    2055       4044       4081    4045.00        4045.00       0.125000       0.125000    
    2056       4077       4082    4079.00        4079.00       0.125000       0.125000    
    2057       4081       4083    4080.00        4080.00       0.125000       0.125000    
    2058       4082       4083    4080.00        4080.00       0.125000       0.125000    
    2059       4081       4084    4087.00        4087.00       0.125000       0.125000    
    2060       4082       4085    4094.00        4094.00       0.125000       0.125000    
    2061       4045       4087    4044.00        4044.00       0.125000       0.125000    
    2062       4045       4088    4046.00        4046.00       8.333330E-02   8.333330E-02
    2063       4108       4088    4046.00        4046.00       8.333330E-02   8.333330E-02
    2064       4108       4093    4110.00        4110.00       0.125000       0.125000    
    2065       4087       4089    4081.00        4081.00       0.125000       0.125000    
    2066       4087       4090    4088.00        4088.00       0.125000       0.125000    
    2067       4093       4090    4088.00        4088.00       0.125000       0.125000    
    2068       4093       4092    4105.00        4105.00       0.125000       0.125000    
    2069       4079       4094    4077.00        4077.00       0.125000       0.125000    
    2070       4142       4099    4141.00        4141.00       8.333330E-02   8.333330E-02
    2071       4079       4099    4141.00        4141.00       8.333330E-02   8.333330E-02
    2072       4142       4100    4143.00        4143.00       0.125000       0.125000    
    2073       4094       4095    4082.00        4082.00       0.125000       0.125000    
    2074       4100       4097    4099.00        4099.00       0.125000       0.125000    
    2075       4094       4097    4099.00        4099.00       0.125000       0.125000    
    2076       4100       4098    4106.00        4106.00       0.125000       0.125000    
    2077       4110       4105    4108.00        4108.00       0.125000       0.125000    
    2078       4143       4106    4142.00        4142.00       0.125000       0.125000    
    2079       4110       4107    4146.00        4146.00       8.333330E-02   8.333330E-02
    2080       4143       4107    4146.00        4146.00       8.333330E-02   8.333330E-02
    2081       4105       4102    4093.00        4093.00       0.125000       0.125000    
    2082       4106       4103    4100.00        4100.00       0.125000       0.125000    
    2083       4105       4104    4107.00        4107.00       0.125000       0.125000    
    2084       4106       4104    4107.00        4107.00       0.125000       0.125000    
    2085       4046       4108    4043.00        4045.00       0.166667       0.166667    
    2086       4046       4109    4047.00        4047.00       0.125000       0.125000    
    2087       4112       4109    4047.00        4047.00       0.125000       0.125000    
    2088       4146       4110    4143.00        4145.00       0.166667       0.166667    
    2089       4112       4111    4147.00        4147.00       0.125000       0.125000    
    2090       4146       4111    4147.00        4147.00       0.125000       0.125000    
    2091       4118       4119    4053.00        4053.00       0.125000       0.125000    
    2092       4118       4124    4153.00        4153.00       0.125000       0.125000    
    2093       4119       4120    4059.00        4059.00       0.125000       0.125000    
    2094       4129       4121    4066.00        4066.00       0.125000       0.125000    
    2095       4119       4122    4124.00        4124.00       0.125000       0.125000    
    2096       4129       4123    4131.00        4131.00       0.125000       0.125000    
    2097       4124       4125    4119.00        4119.00       0.125000       0.125000    
    2098       4131       4126    4129.00        4129.00       0.125000       0.125000    
    2099       4124       4127    4154.00        4154.00       0.125000       0.125000    
    2100       4131       4128    4164.00        4164.00       0.125000       0.125000    
    2101       4133       4130    4068.00        4068.00       0.125000       0.125000    
    2102       4133       4132    4168.00        4168.00       0.125000       0.125000    
    2103       4141       4142    4079.00        4078.00       0.166667       0.166667    
    2104       4146       4143    4111.00        4110.00       0.166667       0.166667    
    2105       4177       4144    4176.00        4176.00       0.125000       0.125000    
    2106       4141       4144    4176.00        4176.00       0.125000       0.125000    
    2107       4146       4145    4178.00        4178.00       0.125000       0.125000    
    2108       4177       4145    4178.00        4178.00       0.125000       0.125000    
    2109       4153       4154    4118.00        4118.00       0.125000       0.125000    
    2110       4153       4159    4185.00        4185.00       0.125000       0.125000    
    2111       4154       4155    4124.00        4124.00       0.125000       0.125000    
    2112       4164       4156    4131.00        4131.00       0.125000       0.125000    
    2113       4154       4157    4159.00        4159.00       0.125000       0.125000    
    2114       4164       4158    4166.00        4166.00       0.125000       0.125000    
    2115       4159       4160    4154.00        4154.00       0.125000       0.125000    
    2116       4166       4161    4164.00        4164.00       0.125000       0.125000    
    2117       4159       4162    4186.00        4186.00       0.125000       0.125000    
    2118       4166       4163    4196.00        4196.00       0.125000       0.125000    
    2119       4168       4165    4133.00        4133.00       0.125000       0.125000    
    2120       4168       4167    4200.00        4200.00       0.125000       0.125000    
    2121       4185       4186    4153.00        4153.00       0.125000       0.125000    
    2122       4185       4191    4217.00        4217.00       0.125000       0.125000    
    2123       4186       4187    4159.00        4159.00       0.125000       0.125000    
    2124       4196       4188    4166.00        4166.00       0.125000       0.125000    
    2125       4186       4189    4191.00        4191.00       0.125000       0.125000    
    2126       4196       4190    4198.00        4198.00       0.125000       0.125000    
    2127       4191       4192    4186.00        4186.00       0.125000       0.125000    
    2128       4198       4193    4196.00        4196.00       0.125000       0.125000    
    2129       4191       4194    4218.00        4218.00       0.125000       0.125000    
    2130       4198       4195    4228.00        4228.00       0.125000       0.125000    
    2131       4200       4197    4168.00        4168.00       0.125000       0.125000    
    2132       4200       4199    4232.00        4232.00       0.125000       0.125000    
    2133       4217       4218    4185.00        4185.00       0.125000       0.125000    
    2134       4217       4223    4252.00        4252.00       0.125000       0.125000    
    2135       4218       4219    4191.00        4191.00       0.125000       0.125000    
    2136       4228       4220    4198.00        4198.00       0.125000       0.125000    
    2137       4218       4221    4223.00        4223.00       0.125000       0.125000    
    2138       4228       4222    4230.00        4230.00       0.125000       0.125000    
    2139       4223       4224    4218.00        4218.00       0.125000       0.125000    
    2140       4230       4225    4228.00        4228.00       0.125000       0.125000    
    2141       4223       4226    4253.00        4253.00       0.125000       0.125000    
    2142       4230       4227    4263.00        4263.00       0.125000       0.125000    
    2143       4232       4229    4200.00        4200.00       0.125000       0.125000    
    2144       4232       4231    4267.00        4267.00       0.125000       0.125000    
    2145       4215       4247    4214.00        4214.00       0.125000       0.125000    
    2146       4246       4247    4214.00        4214.00       0.125000       0.125000    
    2147       4215       4248    4216.00        4216.00       0.125000       0.125000    
    2148       4251       4248    4216.00        4216.00       0.125000       0.125000    
    2149       4246       4249    4281.00        4282.00       0.166667       0.166667    
    2150       4251       4250    4313.00        4314.00       0.166667       0.166667    
    2151       4252       4253    4217.00        4217.00       0.125000       0.125000    
    2152       4252       4258    4317.00        4317.00       0.125000       0.125000    
    2153       4253       4254    4223.00        4223.00       0.125000       0.125000    
    2154       4263       4255    4230.00        4230.00       0.125000       0.125000    
    2155       4253       4256    4258.00        4258.00       0.125000       0.125000    
    2156       4263       4257    4265.00        4265.00       0.125000       0.125000    
    2157       4258       4259    4253.00        4253.00       0.125000       0.125000    
    2158       4265       4260    4263.00        4263.00       0.125000       0.125000    
    2159       4258       4261    4318.00        4318.00       0.125000       0.125000    
    2160       4265       4262    4328.00        4328.00       0.125000       0.125000    
    2161       4267       4264    4232.00        4232.00       0.125000       0.125000    
    2162       4267       4266    4332.00        4332.00       0.125000       0.125000    
    2163       4246       4281    4245.00        4245.00       0.125000       0.125000    
    2164       4280       4281    4245.00        4245.00       0.125000       0.125000    
    2165       4246       4282    4249.00        4247.00       0.166667       0.166667    
    2166       4346       4283    4345.00        4345.00       0.125000       0.125000    
    2167       4280       4283    4345.00        4345.00       0.125000       0.125000    
    2168       4346       4284    4349.00        4347.00       0.166667       0.166667    
    2169       4249       4285    4246.00        4246.00       8.333330E-02   8.333330E-02
    2170       4282       4285    4246.00        4246.00       8.333330E-02   8.333330E-02
    2171       4249       4286    4250.00        4250.00       0.125000       0.125000    
    2172       4282       4287    4284.00        4284.00       0.125000       0.125000    
    2173       4286       4288    4285.00        4285.00       0.125000       0.125000    
    2174       4287       4288    4285.00        4285.00       0.125000       0.125000    
    2175       4286       4289    4292.00        4292.00       0.125000       0.125000    
    2176       4287       4290    4299.00        4299.00       0.125000       0.125000    
    2177       4250       4292    4249.00        4249.00       0.125000       0.125000    
    2178       4250       4293    4251.00        4251.00       8.333330E-02   8.333330E-02
    2179       4313       4293    4251.00        4251.00       8.333330E-02   8.333330E-02
    2180       4313       4298    4315.00        4315.00       0.125000       0.125000    
    2181       4292       4294    4286.00        4286.00       0.125000       0.125000    
    2182       4292       4295    4293.00        4293.00       0.125000       0.125000    
    2183       4298       4295    4293.00        4293.00       0.125000       0.125000    
    2184       4298       4297    4310.00        4310.00       0.125000       0.125000    
    2185       4284       4299    4282.00        4282.00       0.125000       0.125000    
    2186       4347       4304    4346.00        4346.00       8.333330E-02   8.333330E-02
    2187       4284       4304    4346.00        4346.00       8.333330E-02   8.333330E-02
    2188       4347       4305    4348.00        4348.00       0.125000       0.125000    
    2189       4299       4300    4287.00        4287.00       0.125000       0.125000    
    2190       4305       4302    4304.00        4304.00       0.125000       0.125000    
    2191       4299       4302    4304.00        4304.00       0.125000       0.125000    
    2192       4305       4303    4311.00        4311.00       0.125000       0.125000    
    2193       4315       4310    4313.00        4313.00       0.125000       0.125000    
    2194       4348       4311    4347.00        4347.00       0.125000       0.125000    
    2195       4315       4312    4351.00        4351.00       8.333330E-02   8.333330E-02
    2196       4348       4312    4351.00        4351.00       8.333330E-02   8.333330E-02
    2197       4310       4307    4298.00        4298.00       0.125000       0.125000    
    2198       4311       4308    4305.00        4305.00       0.125000       0.125000    
    2199       4310       4309    4312.00        4312.00       0.125000       0.125000    
    2200       4311       4309    4312.00        4312.00       0.125000       0.125000    
    2201       4251       4313    4248.00        4250.00       0.166667       0.166667    
    2202       4251       4314    4252.00        4252.00       0.125000       0.125000    
    2203       4317       4314    4252.00        4252.00       0.125000       0.125000    
    2204       4351       4315    4348.00        4350.00       0.166667       0.166667    
    2205       4317       4316    4352.00        4352.00       0.125000       0.125000    
    2206       4351       4316    4352.00        4352.00       0.125000       0.125000    
    2207       4317       4318    4252.00        4252.00       0.125000       0.125000    
    2208       4317       4323    4352.00        4352.00       0.125000       0.125000    
    2209       4318       4319    4258.00        4258.00       0.125000       0.125000    
    2210       4328       4320    4265.00        4265.00       0.125000       0.125000    
    2211       4318       4321    4323.00        4323.00       0.125000       0.125000    
    2212       4328       4322    4330.00        4330.00       0.125000       0.125000    
    2213       4323       4324    4318.00        4318.00       0.125000       0.125000    
    2214       4330       4325    4328.00        4328.00       0.125000       0.125000    
    2215       4323       4326    4353.00        4353.00       0.125000       0.125000    
    2216       4330       4327    4363.00        4363.00       0.125000       0.125000    
    2217       4332       4329    4267.00        4267.00       0.125000       0.125000    
    2218       4332       4331    4367.00        4367.00       0.125000       0.125000    
    2219       4346       4347    4284.00        4283.00       0.166667       0.166667    
    2220       4351       4348    4316.00        4315.00       0.166667       0.166667    
    2221       4382       4349    4381.00        4381.00       0.125000       0.125000    
    2222       4346       4349    4381.00        4381.00       0.125000       0.125000    
    2223       4351       4350    4383.00        4383.00       0.125000       0.125000    
    2224       4382       4350    4383.00        4383.00       0.125000       0.125000    
    2225       4352       4353    4317.00        4317.00       0.125000       0.125000    
    2226       4352       4358    4384.00        4384.00       0.125000       0.125000    
    2227       4353       4354    4323.00        4323.00       0.125000       0.125000    
    2228       4363       4355    4330.00        4330.00       0.125000       0.125000    
    2229       4353       4356    4358.00        4358.00       0.125000       0.125000    
    2230       4363       4357    4365.00        4365.00       0.125000       0.125000    
    2231       4358       4359    4353.00        4353.00       0.125000       0.125000    
    2232       4365       4360    4363.00        4363.00       0.125000       0.125000    
    2233       4358       4361    4385.00        4385.00       0.125000       0.125000    
    2234       4365       4362    4395.00        4395.00       0.125000       0.125000    
    2235       4367       4364    4332.00        4332.00       0.125000       0.125000    
    2236       4367       4366    4399.00        4399.00       0.125000       0.125000    
    2237       4384       4385    4352.00        4352.00       0.125000       0.125000    
    2238       4384       4390    4416.00        4416.00       0.125000       0.125000    
    2239       4385       4386    4358.00        4358.00       0.125000       0.125000    
    2240       4395       4387    4365.00        4365.00       0.125000       0.125000    
    2241       4385       4388    4390.00        4390.00       0.125000       0.125000    
    2242       4395       4389    4397.00        4397.00       0.125000       0.125000    
    2243       4390       4391    4385.00        4385.00       0.125000       0.125000    
    2244       4397       4392    4395.00        4395.00       0.125000       0.125000    
    2245       4390       4393    4417.00        4417.00       0.125000       0.125000    
    2246       4397       4394    4427.00        4427.00       0.125000       0.125000    
    2247       4399       4396    4367.00        4367.00       0.125000       0.125000    
    2248       4399       4398    4431.00        4431.00       0.125000       0.125000    
    2249       4416       4417    4384.00        4384.00       0.125000       0.125000    
    2250       4416       4422    4448.00        4448.00       0.125000       0.125000    
    2251       4417       4418    4390.00        4390.00       0.125000       0.125000    
    2252       4427       4419    4397.00        4397.00       0.125000       0.125000    
    2253       4417       4420    4422.00        4422.00       0.125000       0.125000    
    2254       4427       4421    4429.00        4429.00       0.125000       0.125000    
    2255       4422       4423    4417.00        4417.00       0.125000       0.125000    
    2256       4429       4424    4427.00        4427.00       0.125000       0.125000    
    2257       4422       4425    4449.00        4449.00       0.125000       0.125000    
    2258       4429       4426    4459.00        4459.00       0.125000       0.125000    
    2259       4431       4428    4399.00        4399.00       0.125000       0.125000    
    2260       4431       4430    4463.00        4463.00       0.125000       0.125000    
    2261       4448       4449    4416.00        4416.00       0.125000       0.125000    
    2262       4448       4454    4480.00        4480.00       0.125000       0.125000    
    2263       4449       4450    4422.00        4422.00       0.125000       0.125000    
    2264       4459       4451    4429.00        4429.00       0.125000       0.125000    
    2265       4449       4452    4454.00        4454.00       0.125000       0.125000    
    2266       4459       4453    4461.00        4461.00       0.125000       0.125000    
    2267       4454       4455    4449.00        4449.00       0.125000       0.125000    
    2268       4461       4456    4459.00        4459.00       0.125000       0.125000    
    2269       4454       4457    4481.00        4481.00       0.125000       0.125000    
    2270       4461       4458    4491.00        4491.00       0.125000       0.125000    
    2271       4463       4460    4431.00        4431.00       0.125000       0.125000    
    2272       4463       4462    4495.00        4495.00       0.125000       0.125000    
    2273       4480       4481    4448.00        4448.00       0.125000       0.125000    
    2274       4481       4482    4454.00        4454.00       0.125000       0.125000    
    2275       4491       4483    4461.00        4461.00       0.125000       0.125000    
    2276       4481       4484    4486.00        4486.00       0.125000       0.125000    
    2277       4491       4485    4493.00        4493.00       0.125000       0.125000    
    2278       4486       4487    4481.00        4481.00       0.125000       0.125000    
    2279       4493       4488    4491.00        4491.00       0.125000       0.125000    
    2280       4495       4492    4463.00        4463.00       0.125000       0.125000    

   2280 GNC CELLS

 DIS -- UNSTRUCTURED GRID DISCRETIZATION PACKAGE, VERSION 1 : 5/17/2010 - INPUT READ FROM UNIT   11



             NO. OF NODES PER LAYER
 READING ON UNIT   11 WITH FORMAT: (FREE)              



                                TOP FOR LAYER   1
 READING ON UNIT   11 WITH FORMAT: (FREE)              



                                TOP FOR LAYER   2
 READING ON UNIT   11 WITH FORMAT: (FREE)              



                                TOP FOR LAYER   3
 READING ON UNIT   11 WITH FORMAT: (FREE)              



                                BOT FOR LAYER   1
 READING ON UNIT   11 WITH FORMAT: (FREE)              



                                BOT FOR LAYER   2
 READING ON UNIT   11 WITH FORMAT: (FREE)              



                                BOT FOR LAYER   3
 READING ON UNIT   11 WITH FORMAT: (FREE)              



                               AREA FOR LAYER   1
 READING ON UNIT   11 WITH FORMAT: (FREE)              



                               AREA FOR LAYER   2
 READING ON UNIT   11 WITH FORMAT: (FREE)              



                               AREA FOR LAYER   3
 READING ON UNIT   11 WITH FORMAT: (FREE)              



                                 IA
 READING ON UNIT   11 WITH FORMAT: (FREE)              



                                 JA
 READING ON UNIT   11 WITH FORMAT: (FREE)              



               CONNECTION LENGTH 12 FOR LAYER   1
 READING ON UNIT   11 WITH FORMAT: (FREE)              



                 PERPENDICULAR AREA
 READING ON UNIT   11 WITH FORMAT: (FREE)              


 STRESS PERIOD     LENGTH       TIME STEPS     MULTIPLIER FOR DELT    SS FLAG
 ----------------------------------------------------------------------------
        1         1.000000          1                    1.000         SS
        2         31.00000          1                    1.000         TR
        3         29.00000          1                    1.000         TR
        4         31.00000          1                    1.000         TR
        5         30.00000          1                    1.000         TR
        6         31.00000          1                    1.000         TR
        7         30.00000          1                    1.000         TR
        8         31.00000          1                    1.000         TR
        9         31.00000          1                    1.000         TR
       10         30.00000          1                    1.000         TR
       11         31.00000          1                    1.000         TR
       12         30.00000          1                    1.000         TR
       13         31.00000          1                    1.000         TR
       14         31.00000          1                    1.000         TR
       15         28.00000          1                    1.000         TR
       16         31.00000          1                    1.000         TR
       17         30.00000          1                    1.000         TR
       18         31.00000          1                    1.000         TR
       19         30.00000          1                    1.000         TR
       20         31.00000          1                    1.000         TR
       21         31.00000          1                    1.000         TR
       22         30.00000          1                    1.000         TR
       23         31.00000          1                    1.000         TR
       24         30.00000          1                    1.000         TR
       25         31.00000          1                    1.000         TR

 COMBINED STEADY-STATE AND TRANSIENT SIMULATION






                     BOUNDARY ARRAY FOR LAYER   1
 READING ON UNIT   13 WITH FORMAT: (1499I10)           



                     BOUNDARY ARRAY FOR LAYER   2
 READING ON UNIT   13 WITH FORMAT: (1499I10)           



                     BOUNDARY ARRAY FOR LAYER   3
 READING ON UNIT   13 WITH FORMAT: (1499I10)           

 AQUIFER HEAD WILL BE SET TO  -999.99     AT ALL NO-FLOW NODES (IBOUND=0).



                       INITIAL HEAD FOR LAYER   1
 READING ON UNIT   13 WITH FORMAT: (1499E15.6)         



                       INITIAL HEAD FOR LAYER   2
 READING ON UNIT   13 WITH FORMAT: (1499E15.6)         



                       INITIAL HEAD FOR LAYER   3
 READING ON UNIT   13 WITH FORMAT: (1499E15.6)         
 # OC package for  MODFLOW-USG, generated by Flopy.

 OUTPUT CONTROL IS SPECIFIED ONLY AT TIME STEPS FOR WHICH OUTPUT IS DESIRED
 COMPACT CELL-BY-CELL BUDGET FILES WILL BE WRITTEN
 AUXILIARY DATA WILL BE SAVED IN CELL-BY-CELL BUDGET FILES
 HEAD PRINT FORMAT CODE IS   0    DRAWDOWN PRINT FORMAT CODE IS   0
 HEADS WILL BE SAVED ON UNIT   51    DRAWDOWNS WILL BE SAVED ON UNIT    0

 LPF -- LAYER-PROPERTY FLOW PACKAGE, VERSION 7, 5/2/2005
         INPUT READ FROM UNIT   15
 # LPF package for  MODFLOW-USG, generated by Flopy.
 CELL-BY-CELL FLOWS WILL BE SAVED ON UNIT   50
 HEAD AT CELLS THAT CONVERT TO DRY= -1.00000E+30
 No named parameters
 IKCFLAG=0, NODAL INPUT OF HY AND CV

   LAYER FLAGS:
 LAYER       LAYTYP        LAYAVG         CHANI        LAYVKA        LAYWET
 ---------------------------------------------------------------------------
    1             1             0     1.000E+00             0             0
    2             0             0     1.000E+00             0             0
    3             0             0     1.000E+00             0             0

   INTERPRETATION OF LAYER FLAGS:
                        INTERBLOCK     HORIZONTAL    DATA IN
         LAYER TYPE   TRANSMISSIVITY   ANISOTROPY   ARRAY VKA   WETTABILITY
 LAYER      (LAYTYP)      (LAYAVG)       (CHANI)      (LAYVKA)      (LAYWET)
 ---------------------------------------------------------------------------
    1   CONVERTIBLE      HARMONIC     1.000E+00    VERTICAL K  NON-WETTABLE
    2      CONFINED      HARMONIC     1.000E+00    VERTICAL K  NON-WETTABLE
    3      CONFINED      HARMONIC     1.000E+00    VERTICAL K  NON-WETTABLE

 WETTING CAPABILITY IS NOT ACTIVE IN ANY LAYER



              HYD. COND. ALONG ROWS FOR LAYER   1
 READING ON UNIT   15 WITH FORMAT: (1499E15.6)         



                VERTICAL HYD. COND. FOR LAYER   1
 READING ON UNIT   15 WITH FORMAT: (1499E15.6)         



                   SPECIFIC STORAGE FOR LAYER   1
 READING ON UNIT   15 WITH FORMAT: (1499E15.6)         



                     SPECIFIC YIELD FOR LAYER   1
 READING ON UNIT   15 WITH FORMAT: (1499E15.6)         



              HYD. COND. ALONG ROWS FOR LAYER   2
 READING ON UNIT   15 WITH FORMAT: (1499E15.6)         



                VERTICAL HYD. COND. FOR LAYER   2
 READING ON UNIT   15 WITH FORMAT: (1499E15.6)         



                   SPECIFIC STORAGE FOR LAYER   2
 READING ON UNIT   15 WITH FORMAT: (1499E15.6)         



              HYD. COND. ALONG ROWS FOR LAYER   3
 READING ON UNIT   15 WITH FORMAT: (1499E15.6)         



                VERTICAL HYD. COND. FOR LAYER   3
 READING ON UNIT   15 WITH FORMAT: (1499E15.6)         



                   SPECIFIC STORAGE FOR LAYER   3
 READING ON UNIT   15 WITH FORMAT: (1499E15.6)         

 WEL -- WELL PACKAGE, VERSION 7, 5/2/2005 INPUT READ FROM UNIT   20
 # WEL package for  MODFLOW-USG, generated by Flopy.
 No named parameters
 MAXIMUM OF      6 ACTIVE WELLS AT ONE TIME
 CELL-BY-CELL FLOWS WILL BE SAVED ON UNIT   50
 MAXIMUM NUMBER OF ACTIVE WELLS (MXACTW) =      6
 C-B-C FLUX FLAG OR UNIT NUMBER (IWELCB) = 50


     0 Well parameters

 GHB -- GENERAL-HEAD BOUNDARY PACKAGE, VERSION 7, 5/2/2005
         INPUT READ FROM UNIT   30
 # GHB package for  MODFLOW-USG, generated by Flopy.
 No named parameters
 MAXIMUM OF     50 ACTIVE GHB CELLS AT ONE TIME
 CELL-BY-CELL FLOWS WILL BE SAVED ON UNIT   50


     0 GHB parameters

 RCH -- RECHARGE PACKAGE, VERSION 7, 5/2/2005 INPUT READ FROM UNIT   31
 # RCH package for  MODFLOW-USG, generated by Flopy.
 No named parameters
 OPTION 3 -- RECHARGE TO HIGHEST ACTIVE NODE IN EACH VERTICAL COLUMN
 CELL-BY-CELL FLOWS WILL BE SAVED ON UNIT   50


     0 Recharge parameters

 SFR7 -- STREAMFLOW ROUTING PACKAGE, VERSION 7.1.03, 2010-12-28
         INPUT READ FROM UNIT  28
 # SFR package for  MODFLOW-NWT, generated by Ross.
 No named parameters

 No named parameters
 No specifed inflow files


 NUMBER OF STREAM REACHES IS  160

 NUMBER OF STREAM SEGMENTS IS  160

 NUMBER OF STREAM PARAMETERS IS    0

 NUMBER OF STREAM SEGMENTS DEFINED USING PARAMETERS IS    0

 MAXIMUM ERROR FOR STREAM LEAKAGE RATES IS  1.00E-04

 CONSTANT FOR MANNINGS EQUATION IS  8.6400E+04





 USING DATA INPUT MODIFIED FROM ORIGINAL SFR PROGRAM FOR FARM PACKAGE

 FLOW TO AND FROM GROUND WATER FOR EACH STREAM REACH WILL BE SAVED ON UNIT 50
 STREAM OUTPUT WILL BE WRITTEN TO FILE ON UNIT  60


   STREAM NETWORK DESCRIPTION: 

   LAYER    ROW    COL   SEGMENT   REACH     LENGTH     STREAMBED     STREAMBED   STREAMBED     STREAMBED
                          NUMBER   NUMBER    IN CELL    TOP ELEV.       SLOPE     THICKNESS   HYDR. CONDUCT.
   ---------------------------------------------------------------------------------------------------------
       17       1        1    6.2500E+01   3.4000E+01   5.0000E-05   1.0000E+00   1.0000E-01
       19       2        1    6.2500E+01   3.4000E+01   5.0000E-05   1.0000E+00   1.0000E-01
       22       3        1    6.2500E+01   3.4000E+01   5.0000E-05   1.0000E+00   1.0000E-01
       24       4        1    6.2500E+01   3.4000E+01   5.0000E-05   1.0000E+00   1.0000E-01
       49       5        1    6.2500E+01   3.3987E+01   5.0000E-05   1.0000E+00   1.0000E-01
       51       6        1    6.2500E+01   3.3987E+01   5.0000E-05   1.0000E+00   1.0000E-01
       54       7        1    6.2500E+01   3.3987E+01   5.0000E-05   1.0000E+00   1.0000E-01
       56       8        1    6.2500E+01   3.3987E+01   5.0000E-05   1.0000E+00   1.0000E-01
       81       9        1    6.2500E+01   3.3974E+01   5.0000E-05   1.0000E+00   1.0000E-01
       83      10        1    6.2500E+01   3.3974E+01   5.0000E-05   1.0000E+00   1.0000E-01
       86      11        1    6.2500E+01   3.3974E+01   5.0000E-05   1.0000E+00   1.0000E-01
       88      12        1    6.2500E+01   3.3974E+01   5.0000E-05   1.0000E+00   1.0000E-01
      113      13        1    6.2500E+01   3.3962E+01   5.0000E-05   1.0000E+00   1.0000E-01
      115      14        1    6.2500E+01   3.3962E+01   5.0000E-05   1.0000E+00   1.0000E-01
      118      15        1    6.2500E+01   3.3962E+01   5.0000E-05   1.0000E+00   1.0000E-01
      120      16        1    6.2500E+01   3.3962E+01   5.0000E-05   1.0000E+00   1.0000E-01
      145      17        1    6.2500E+01   3.3949E+01   5.0000E-05   1.0000E+00   1.0000E-01
      147      18        1    6.2500E+01   3.3949E+01   5.0000E-05   1.0000E+00   1.0000E-01
      150      19        1    6.2500E+01   3.3949E+01   5.0000E-05   1.0000E+00   1.0000E-01
      152      20        1    6.2500E+01   3.3949E+01   5.0000E-05   1.0000E+00   1.0000E-01
      177      21        1    6.2500E+01   3.3936E+01   5.0000E-05   1.0000E+00   1.0000E-01
      179      22        1    6.2500E+01   3.3936E+01   5.0000E-05   1.0000E+00   1.0000E-01
      182      23        1    6.2500E+01   3.3936E+01   5.0000E-05   1.0000E+00   1.0000E-01
      184      24        1    6.2500E+01   3.3936E+01   5.0000E-05   1.0000E+00   1.0000E-01
      209      25        1    6.2500E+01   3.3923E+01   5.0000E-05   1.0000E+00   1.0000E-01
      211      26        1    6.2500E+01   3.3923E+01   5.0000E-05   1.0000E+00   1.0000E-01
      214      27        1    6.2500E+01   3.3923E+01   5.0000E-05   1.0000E+00   1.0000E-01
      216      28        1    6.2500E+01   3.3923E+01   5.0000E-05   1.0000E+00   1.0000E-01
      241      29        1    6.2500E+01   3.3910E+01   5.0000E-05   1.0000E+00   1.0000E-01
      243      30        1    6.2500E+01   3.3910E+01   5.0000E-05   1.0000E+00   1.0000E-01
      246      31        1    6.2500E+01   3.3910E+01   5.0000E-05   1.0000E+00   1.0000E-01
      248      32        1    6.2500E+01   3.3910E+01   5.0000E-05   1.0000E+00   1.0000E-01
      273      33        1    6.2500E+01   3.3897E+01   5.0000E-05   1.0000E+00   1.0000E-01
      275      34        1    6.2500E+01   3.3897E+01   5.0000E-05   1.0000E+00   1.0000E-01
      278      35        1    6.2500E+01   3.3897E+01   5.0000E-05   1.0000E+00   1.0000E-01
      280      36        1    6.2500E+01   3.3897E+01   5.0000E-05   1.0000E+00   1.0000E-01
      305      37        1    6.2500E+01   3.3885E+01   5.0000E-05   1.0000E+00   1.0000E-01
      307      38        1    6.2500E+01   3.3885E+01   5.0000E-05   1.0000E+00   1.0000E-01
      310      39        1    6.2500E+01   3.3885E+01   5.0000E-05   1.0000E+00   1.0000E-01
      312      40        1    6.2500E+01   3.3885E+01   5.0000E-05   1.0000E+00   1.0000E-01
      367      41        1    6.2500E+01   3.3872E+01   5.0000E-05   1.0000E+00   1.0000E-01
      369      42        1    6.2500E+01   3.3872E+01   5.0000E-05   1.0000E+00   1.0000E-01
      372      43        1    6.2500E+01   3.3872E+01   5.0000E-05   1.0000E+00   1.0000E-01
      374      44        1    6.2500E+01   3.3872E+01   5.0000E-05   1.0000E+00   1.0000E-01
      432      45        1    6.2500E+01   3.3859E+01   5.0000E-05   1.0000E+00   1.0000E-01
      434      46        1    6.2500E+01   3.3859E+01   5.0000E-05   1.0000E+00   1.0000E-01
      437      47        1    6.2500E+01   3.3859E+01   5.0000E-05   1.0000E+00   1.0000E-01
      439      48        1    6.2500E+01   3.3859E+01   5.0000E-05   1.0000E+00   1.0000E-01
      467      49        1    6.2500E+01   3.3846E+01   5.0000E-05   1.0000E+00   1.0000E-01
      469      50        1    6.2500E+01   3.3846E+01   5.0000E-05   1.0000E+00   1.0000E-01
      472      51        1    6.2500E+01   3.3846E+01   5.0000E-05   1.0000E+00   1.0000E-01
      474      52        1    6.2500E+01   3.3846E+01   5.0000E-05   1.0000E+00   1.0000E-01
      499      53        1    6.2500E+01   3.3833E+01   5.0000E-05   1.0000E+00   1.0000E-01
      501      54        1    6.2500E+01   3.3833E+01   5.0000E-05   1.0000E+00   1.0000E-01
      504      55        1    6.2500E+01   3.3833E+01   5.0000E-05   1.0000E+00   1.0000E-01
      506      56        1    6.2500E+01   3.3833E+01   5.0000E-05   1.0000E+00   1.0000E-01
      531      57        1    6.2500E+01   3.3821E+01   5.0000E-05   1.0000E+00   1.0000E-01
      533      58        1    6.2500E+01   3.3821E+01   5.0000E-05   1.0000E+00   1.0000E-01
      536      59        1    6.2500E+01   3.3821E+01   5.0000E-05   1.0000E+00   1.0000E-01
      538      60        1    6.2500E+01   3.3821E+01   5.0000E-05   1.0000E+00   1.0000E-01
      563      61        1    6.2500E+01   3.3808E+01   5.0000E-05   1.0000E+00   1.0000E-01
      565      62        1    6.2500E+01   3.3808E+01   5.0000E-05   1.0000E+00   1.0000E-01
      568      63        1    6.2500E+01   3.3808E+01   5.0000E-05   1.0000E+00   1.0000E-01
      570      64        1    6.2500E+01   3.3808E+01   5.0000E-05   1.0000E+00   1.0000E-01
      595      65        1    6.2500E+01   3.3795E+01   5.0000E-05   1.0000E+00   1.0000E-01
      597      66        1    6.2500E+01   3.3795E+01   5.0000E-05   1.0000E+00   1.0000E-01
      600      67        1    6.2500E+01   3.3795E+01   5.0000E-05   1.0000E+00   1.0000E-01
      602      68        1    6.2500E+01   3.3795E+01   5.0000E-05   1.0000E+00   1.0000E-01
      627      69        1    6.2500E+01   3.3782E+01   5.0000E-05   1.0000E+00   1.0000E-01
      629      70        1    6.2500E+01   3.3782E+01   5.0000E-05   1.0000E+00   1.0000E-01
      632      71        1    6.2500E+01   3.3782E+01   5.0000E-05   1.0000E+00   1.0000E-01
      634      72        1    6.2500E+01   3.3782E+01   5.0000E-05   1.0000E+00   1.0000E-01
      659      73        1    6.2500E+01   3.3769E+01   5.0000E-05   1.0000E+00   1.0000E-01
      661      74        1    6.2500E+01   3.3769E+01   5.0000E-05   1.0000E+00   1.0000E-01
      664      75        1    6.2500E+01   3.3769E+01   5.0000E-05   1.0000E+00   1.0000E-01
      666      76        1    6.2500E+01   3.3769E+01   5.0000E-05   1.0000E+00   1.0000E-01
      694      77        1    6.2500E+01   3.3756E+01   5.0000E-05   1.0000E+00   1.0000E-01
      696      78        1    6.2500E+01   3.3756E+01   5.0000E-05   1.0000E+00   1.0000E-01
      699      79        1    6.2500E+01   3.3756E+01   5.0000E-05   1.0000E+00   1.0000E-01
      701      80        1    6.2500E+01   3.3756E+01   5.0000E-05   1.0000E+00   1.0000E-01
      756      81        1    6.2500E+01   3.3744E+01   5.0000E-05   1.0000E+00   1.0000E-01
      758      82        1    6.2500E+01   3.3744E+01   5.0000E-05   1.0000E+00   1.0000E-01
      761      83        1    6.2500E+01   3.3744E+01   5.0000E-05   1.0000E+00   1.0000E-01
      763      84        1    6.2500E+01   3.3744E+01   5.0000E-05   1.0000E+00   1.0000E-01
      791      85        1    6.2500E+01   3.3731E+01   5.0000E-05   1.0000E+00   1.0000E-01
      793      86        1    6.2500E+01   3.3731E+01   5.0000E-05   1.0000E+00   1.0000E-01
      796      87        1    6.2500E+01   3.3731E+01   5.0000E-05   1.0000E+00   1.0000E-01
      798      88        1    6.2500E+01   3.3731E+01   5.0000E-05   1.0000E+00   1.0000E-01
      823      89        1    6.2500E+01   3.3718E+01   5.0000E-05   1.0000E+00   1.0000E-01
      825      90        1    6.2500E+01   3.3718E+01   5.0000E-05   1.0000E+00   1.0000E-01
      828      91        1    6.2500E+01   3.3718E+01   5.0000E-05   1.0000E+00   1.0000E-01
      830      92        1    6.2500E+01   3.3718E+01   5.0000E-05   1.0000E+00   1.0000E-01
      855      93        1    6.2500E+01   3.3705E+01   5.0000E-05   1.0000E+00   1.0000E-01
      857      94        1    6.2500E+01   3.3705E+01   5.0000E-05   1.0000E+00   1.0000E-01
      860      95        1    6.2500E+01   3.3705E+01   5.0000E-05   1.0000E+00   1.0000E-01
      862      96        1    6.2500E+01   3.3705E+01   5.0000E-05   1.0000E+00   1.0000E-01
      887      97        1    6.2500E+01   3.3692E+01   5.0000E-05   1.0000E+00   1.0000E-01
      889      98        1    6.2500E+01   3.3692E+01   5.0000E-05   1.0000E+00   1.0000E-01
      892      99        1    6.2500E+01   3.3692E+01   5.0000E-05   1.0000E+00   1.0000E-01
      894     100        1    6.2500E+01   3.3692E+01   5.0000E-05   1.0000E+00   1.0000E-01
      922     101        1    6.2500E+01   3.3679E+01   5.0000E-05   1.0000E+00   1.0000E-01
      924     102        1    6.2500E+01   3.3679E+01   5.0000E-05   1.0000E+00   1.0000E-01
      927     103        1    6.2500E+01   3.3679E+01   5.0000E-05   1.0000E+00   1.0000E-01
      929     104        1    6.2500E+01   3.3679E+01   5.0000E-05   1.0000E+00   1.0000E-01
      987     105        1    6.2500E+01   3.3667E+01   5.0000E-05   1.0000E+00   1.0000E-01
      989     106        1    6.2500E+01   3.3667E+01   5.0000E-05   1.0000E+00   1.0000E-01
      992     107        1    6.2500E+01   3.3667E+01   5.0000E-05   1.0000E+00   1.0000E-01
      994     108        1    6.2500E+01   3.3667E+01   5.0000E-05   1.0000E+00   1.0000E-01
     1022     109        1    6.2500E+01   3.3654E+01   5.0000E-05   1.0000E+00   1.0000E-01
     1024     110        1    6.2500E+01   3.3654E+01   5.0000E-05   1.0000E+00   1.0000E-01
     1027     111        1    6.2500E+01   3.3654E+01   5.0000E-05   1.0000E+00   1.0000E-01
     1029     112        1    6.2500E+01   3.3654E+01   5.0000E-05   1.0000E+00   1.0000E-01
     1057     113        1    6.2500E+01   3.3641E+01   5.0000E-05   1.0000E+00   1.0000E-01
     1059     114        1    6.2500E+01   3.3641E+01   5.0000E-05   1.0000E+00   1.0000E-01
     1062     115        1    6.2500E+01   3.3641E+01   5.0000E-05   1.0000E+00   1.0000E-01
     1064     116        1    6.2500E+01   3.3641E+01   5.0000E-05   1.0000E+00   1.0000E-01
     1122     117        1    6.2500E+01   3.3628E+01   5.0000E-05   1.0000E+00   1.0000E-01
     1124     118        1    6.2500E+01   3.3628E+01   5.0000E-05   1.0000E+00   1.0000E-01
     1127     119        1    6.2500E+01   3.3628E+01   5.0000E-05   1.0000E+00   1.0000E-01
     1129     120        1    6.2500E+01   3.3628E+01   5.0000E-05   1.0000E+00   1.0000E-01
     1157     121        1    6.2500E+01   3.3615E+01   5.0000E-05   1.0000E+00   1.0000E-01
     1159     122        1    6.2500E+01   3.3615E+01   5.0000E-05   1.0000E+00   1.0000E-01
     1162     123        1    6.2500E+01   3.3615E+01   5.0000E-05   1.0000E+00   1.0000E-01
     1164     124        1    6.2500E+01   3.3615E+01   5.0000E-05   1.0000E+00   1.0000E-01
     1189     125        1    6.2500E+01   3.3603E+01   5.0000E-05   1.0000E+00   1.0000E-01
     1191     126        1    6.2500E+01   3.3603E+01   5.0000E-05   1.0000E+00   1.0000E-01
     1194     127        1    6.2500E+01   3.3603E+01   5.0000E-05   1.0000E+00   1.0000E-01
     1196     128        1    6.2500E+01   3.3603E+01   5.0000E-05   1.0000E+00   1.0000E-01
     1221     129        1    6.2500E+01   3.3590E+01   5.0000E-05   1.0000E+00   1.0000E-01
     1223     130        1    6.2500E+01   3.3590E+01   5.0000E-05   1.0000E+00   1.0000E-01
     1226     131        1    6.2500E+01   3.3590E+01   5.0000E-05   1.0000E+00   1.0000E-01
     1228     132        1    6.2500E+01   3.3590E+01   5.0000E-05   1.0000E+00   1.0000E-01
     1256     133        1    6.2500E+01   3.3577E+01   5.0000E-05   1.0000E+00   1.0000E-01
     1258     134        1    6.2500E+01   3.3577E+01   5.0000E-05   1.0000E+00   1.0000E-01
     1261     135        1    6.2500E+01   3.3577E+01   5.0000E-05   1.0000E+00   1.0000E-01
     1263     136        1    6.2500E+01   3.3577E+01   5.0000E-05   1.0000E+00   1.0000E-01
     1321     137        1    6.2500E+01   3.3564E+01   5.0000E-05   1.0000E+00   1.0000E-01
     1323     138        1    6.2500E+01   3.3564E+01   5.0000E-05   1.0000E+00   1.0000E-01
     1326     139        1    6.2500E+01   3.3564E+01   5.0000E-05   1.0000E+00   1.0000E-01
     1328     140        1    6.2500E+01   3.3564E+01   5.0000E-05   1.0000E+00   1.0000E-01
     1356     141        1    6.2500E+01   3.3551E+01   5.0000E-05   1.0000E+00   1.0000E-01
     1358     142        1    6.2500E+01   3.3551E+01   5.0000E-05   1.0000E+00   1.0000E-01
     1361     143        1    6.2500E+01   3.3551E+01   5.0000E-05   1.0000E+00   1.0000E-01
     1363     144        1    6.2500E+01   3.3551E+01   5.0000E-05   1.0000E+00   1.0000E-01
     1388     145        1    6.2500E+01   3.3538E+01   5.0000E-05   1.0000E+00   1.0000E-01
     1390     146        1    6.2500E+01   3.3538E+01   5.0000E-05   1.0000E+00   1.0000E-01
     1393     147        1    6.2500E+01   3.3538E+01   5.0000E-05   1.0000E+00   1.0000E-01
     1395     148        1    6.2500E+01   3.3538E+01   5.0000E-05   1.0000E+00   1.0000E-01
     1420     149        1    6.2500E+01   3.3526E+01   5.0000E-05   1.0000E+00   1.0000E-01
     1422     150        1    6.2500E+01   3.3526E+01   5.0000E-05   1.0000E+00   1.0000E-01
     1425     151        1    6.2500E+01   3.3526E+01   5.0000E-05   1.0000E+00   1.0000E-01
     1427     152        1    6.2500E+01   3.3526E+01   5.0000E-05   1.0000E+00   1.0000E-01
     1452     153        1    6.2500E+01   3.3513E+01   5.0000E-05   1.0000E+00   1.0000E-01
     1454     154        1    6.2500E+01   3.3513E+01   5.0000E-05   1.0000E+00   1.0000E-01
     1457     155        1    6.2500E+01   3.3513E+01   5.0000E-05   1.0000E+00   1.0000E-01
     1459     156        1    6.2500E+01   3.3513E+01   5.0000E-05   1.0000E+00   1.0000E-01
     1484     157        1    6.2500E+01   3.3500E+01   5.0000E-05   1.0000E+00   1.0000E-01
     1486     158        1    6.2500E+01   3.3500E+01   5.0000E-05   1.0000E+00   1.0000E-01
     1489     159        1    6.2500E+01   3.3500E+01   5.0000E-05   1.0000E+00   1.0000E-01
     1491     160        1    6.2500E+01   3.3500E+01   5.0000E-05   1.0000E+00   1.0000E-01

 *** WARNING *** FIRST OCCURRENCE WHERE A STREAM REACH IS ASSIGNED TO AN INACTIVE CELL IS SEGMENT  157 REACH NO.    1
  IBOUND ARRAY VALUE IS    0 AT NODE    1484.

 *** WARNING *** A TOTAL OF     4STREAM REACHES WERE ASSIGNED TO CELLS WHERE THE IBOUND ARRAY WAS ZERO.
 PROGRAM SEARCHES FOR UPPERMOST ACTIVE CELL IN VERTICAL COLUMN FOR ALL OCCURRENCES.
 IF ALL CELLS IN A VERTICAL COLUMN ARE INACTIVE, STREAM LEAKAGE WILL NOT BE ALLOWED FOR ASSOCIATED STREAM REACH. 





 SMS -- SPARSE MATRIX SOLVER PACKAGE, VERSION 7, 5/2/2005
         INPUT READ FROM UNIT 32
 # SMS package for  MODFLOW-USG, generated by Flopy.
 No named parameters
 ALL SOLVER INPUT DATA WILL BE READ 
FROM THE SOLVER INPUT FILE. 
 OUTER ITERATION CONVERGENCE CRITERION (HCLOSE) =    0.100000E-03
 INNER ITERATION CONVERGENCE CRITERION (HICLOSE) =    0.100000E-03
 MAXIMUM NUMBER OF OUTER ITERATIONS (MXITER)     =       100
 MAXIMUM NUMBER OF INNER ITERATIONS (ITER1)      =        20
 SOLVER PRINTOUT INDEX             (IPRSMS)      =         2
 NONLINEAR ITERATION METHOD    (NONLINMETH)      =         0
 LINEAR SOLUTION METHOD           (LINMETH)      =         2
 ***Picard Linearization will be used***
 
 ***PCGU linear solver will be used***

 PCGU -- UNSTRUCTURED CONJUGATE-GRADIENT SOLUTION PACKAGE, VERSION 7.02, 08/13/2013

              SOLUTION BY THE CONJUGATE-GRADIENT METHOD
 ------------------------------------------------------------------
 MAXIMUM OF    100 CALLS OF SOLUTION ROUTINE
 MAXIMUM OF     20 INTERNAL ITERATIONS PER CALL TO SOLUTION ROUTINE
 LINEAR ACCELERATION METHOD            = BCGS      
 MATRIX PRECONDITIONING TYPE           = MOD. INCOMPLETE LU  
 MATRIX SCALING APPROACH               = NO SCALING          
 MATRIX REORDERING APPROACH            = ORIGINAL ORDERING        
 HEAD CHANGE CRITERION FOR CLOSURE     =    0.10000E-03
 RESIDUAL CHANGE CRITERION FOR CLOSURE =    0.10000E+00
 RELAXATION FACTOR                     =    0.10000E+01
  ONLY USED WITH MILU0 PRECONDITIONER


 
1
                            STRESS PERIOD NO.    1, LENGTH =   1.000000    
                            -----------------------------------------------

                              NUMBER OF TIME STEPS =     1

                               MULTIPLIER FOR DELT =     1.000

                            INITIAL TIME STEP SIZE =   1.000000    

 WEL -- WELL PACKAGE, VERSION 7, 5/2/2005 INPUT READ FROM UNIT   20

 WELL NO.      NODE       STRESS FACTOR         
 -----------------------------------------------
      1        3324      -375.0    
      2        3409      -375.0    
      3        3737      -375.0    
      4        3971      -375.0    
      5        4092      -375.0    
      6        4297      -375.0    

      6 WELLS

 GHB -- GENERAL-HEAD BOUNDARY PACKAGE, VERSION 7, 5/2/2005
         INPUT READ FROM UNIT   30

 BOUND NO.     NODE         STAGE         CONDUCTANCE         
 -------------------------------------------------------------
      1        1473       33.50           70.00    
      2        1474       33.50           70.00    
      3        1475       33.50           70.00    
      4        1476       33.50           70.00    
      5        1477       33.50           70.00    
      6        1478       33.50           70.00    
      7        1479       33.50           70.00    
      8        1480       33.50           70.00    
      9        1481       33.50           70.00    
     10        1482       33.50           70.00    
     11        2972       33.50           70.00    
     12        2973       33.50           70.00    
     13        2974       33.50           70.00    
     14        2975       33.50           70.00    
     15        2976       33.50           70.00    
     16        2977       33.50           70.00    
     17        2978       33.50           70.00    
     18        2979       33.50           70.00    
     19        2980       33.50           70.00    
     20        2981       33.50           70.00    
     21        4471       33.50           70.00    
     22        4472       33.50           70.00    
     23        4473       33.50           70.00    
     24        4474       33.50           70.00    
     25        4475       33.50           70.00    
     26        4476       33.50           70.00    
     27        4477       33.50           70.00    
     28        4478       33.50           70.00    
     29        4479       33.50           70.00    
     30        4480       33.50           70.00    
     31        2999       35.50           70.00    
     32        3000       35.50           70.00    
     33        3001       35.50           70.00    
     34        3002       35.50           70.00    
     35        3003       35.50           70.00    
     36        3004       35.50           70.00    
     37        3005       35.50           70.00    
     38        3006       35.50           70.00    
     39        3007       35.50           70.00    
     40        3008       35.50           70.00    
     41        3009       35.50           70.00    
     42        3010       35.50           70.00    
     43        3011       35.50           70.00    
     44        3012       35.50           70.00    
     45        3013       35.50           70.00    
     46        3023       35.50           4.375    
     47        3027       35.50           17.50    
     48        3028       35.50           70.00    
     49        3029       35.50           70.00    
     50        3030       35.50           70.00    

     50 GHB CELLS

 RCH -- RECHARGE PACKAGE, VERSION 7, 5/2/2005 INPUT READ FROM UNIT   31



                           RECHARGE
 READING ON UNIT   31 WITH FORMAT: (1499E15.6)         



 CLASSIFICATION & COUNT OF STREAM SEGMENTS BASED ON SOURCE OF INFLOW:

                HEADWATER     DIVERSION     RECEIVES TRIBUTARY FLOW
                ---------     ---------     -----------------------
                     1              0             159



                    INPUT DATA FOR EACH STREAM SEGMENT
 ---------------------------------------------------------------------------------------------

 SEGMENT    SEG.     INFLOW   OVERLAND   STREAM    STREAM   ICALC  OUTFLOW  DIVERSION PRIORITY
    NO.    LENGTH     RATE     RUNOFF      ET       PPT.    METH.  TO SEG.  FROM SEG.    NO.

      1  6.250E+01 1.000E+04 0.000E+00 0.000E+00 0.000E+00    1        2        0        0
      2  6.250E+01 0.000E+00 0.000E+00 0.000E+00 0.000E+00    1        3        0        0
      3  6.250E+01 0.000E+00 0.000E+00 0.000E+00 0.000E+00    1        4        0        0
      4  6.250E+01 0.000E+00 0.000E+00 0.000E+00 0.000E+00    1        5        0        0
      5  6.250E+01 0.000E+00 0.000E+00 0.000E+00 0.000E+00    1        6        0        0
      6  6.250E+01 0.000E+00 0.000E+00 0.000E+00 0.000E+00    1        7        0        0
      7  6.250E+01 0.000E+00 0.000E+00 0.000E+00 0.000E+00    1        8        0        0
      8  6.250E+01 0.000E+00 0.000E+00 0.000E+00 0.000E+00    1        9        0        0
      9  6.250E+01 0.000E+00 0.000E+00 0.000E+00 0.000E+00    1       10        0        0
     10  6.250E+01 0.000E+00 0.000E+00 0.000E+00 0.000E+00    1       11        0        0
     11  6.250E+01 0.000E+00 0.000E+00 0.000E+00 0.000E+00    1       12        0        0
     12  6.250E+01 0.000E+00 0.000E+00 0.000E+00 0.000E+00    1       13        0        0
     13  6.250E+01 0.000E+00 0.000E+00 0.000E+00 0.000E+00    1       14        0        0
     14  6.250E+01 0.000E+00 0.000E+00 0.000E+00 0.000E+00    1       15        0        0
     15  6.250E+01 0.000E+00 0.000E+00 0.000E+00 0.000E+00    1       16        0        0
     16  6.250E+01 0.000E+00 0.000E+00 0.000E+00 0.000E+00    1       17        0        0
     17  6.250E+01 0.000E+00 0.000E+00 0.000E+00 0.000E+00    1       18        0        0
     18  6.250E+01 0.000E+00 0.000E+00 0.000E+00 0.000E+00    1       19        0        0
     19  6.250E+01 0.000E+00 0.000E+00 0.000E+00 0.000E+00    1       20        0        0
     20  6.250E+01 0.000E+00 0.000E+00 0.000E+00 0.000E+00    1       21        0        0
     21  6.250E+01 0.000E+00 0.000E+00 0.000E+00 0.000E+00    1       22        0        0
     22  6.250E+01 0.000E+00 0.000E+00 0.000E+00 0.000E+00    1       23        0        0
     23  6.250E+01 0.000E+00 0.000E+00 0.000E+00 0.000E+00    1       24        0        0
     24  6.250E+01 0.000E+00 0.000E+00 0.000E+00 0.000E+00    1       25        0        0
     25  6.250E+01 0.000E+00 0.000E+00 0.000E+00 0.000E+00    1       26        0        0
     26  6.250E+01 0.000E+00 0.000E+00 0.000E+00 0.000E+00    1       27        0        0
     27  6.250E+01 0.000E+00 0.000E+00 0.000E+00 0.000E+00    1       28        0        0
     28  6.250E+01 0.000E+00 0.000E+00 0.000E+00 0.000E+00    1       29        0        0
     29  6.250E+01 0.000E+00 0.000E+00 0.000E+00 0.000E+00    1       30        0        0
     30  6.250E+01 0.000E+00 0.000E+00 0.000E+00 0.000E+00    1       31        0        0
     31  6.250E+01 0.000E+00 0.000E+00 0.000E+00 0.000E+00    1       32        0        0
     32  6.250E+01 0.000E+00 0.000E+00 0.000E+00 0.000E+00    1       33        0        0
     33  6.250E+01 0.000E+00 0.000E+00 0.000E+00 0.000E+00    1       34        0        0
     34  6.250E+01 0.000E+00 0.000E+00 0.000E+00 0.000E+00    1       35        0        0
     35  6.250E+01 0.000E+00 0.000E+00 0.000E+00 0.000E+00    1       36        0        0
     36  6.250E+01 0.000E+00 0.000E+00 0.000E+00 0.000E+00    1       37        0        0
     37  6.250E+01 0.000E+00 0.000E+00 0.000E+00 0.000E+00    1       38        0        0
     38  6.250E+01 0.000E+00 0.000E+00 0.000E+00 0.000E+00    1       39        0        0
     39  6.250E+01 0.000E+00 0.000E+00 0.000E+00 0.000E+00    1       40        0        0
     40  6.250E+01 0.000E+00 0.000E+00 0.000E+00 0.000E+00    1       41        0        0
     41  6.250E+01 0.000E+00 0.000E+00 0.000E+00 0.000E+00    1       42        0        0
     42  6.250E+01 0.000E+00 0.000E+00 0.000E+00 0.000E+00    1       43        0        0
     43  6.250E+01 0.000E+00 0.000E+00 0.000E+00 0.000E+00    1       44        0        0
     44  6.250E+01 0.000E+00 0.000E+00 0.000E+00 0.000E+00    1       45        0        0
     45  6.250E+01 0.000E+00 0.000E+00 0.000E+00 0.000E+00    1       46        0        0
     46  6.250E+01 0.000E+00 0.000E+00 0.000E+00 0.000E+00    1       47        0        0
     47  6.250E+01 0.000E+00 0.000E+00 0.000E+00 0.000E+00    1       48        0        0
     48  6.250E+01 0.000E+00 0.000E+00 0.000E+00 0.000E+00    1       49        0        0
     49  6.250E+01 0.000E+00 0.000E+00 0.000E+00 0.000E+00    1       50        0        0
     50  6.250E+01 0.000E+00 0.000E+00 0.000E+00 0.000E+00    1       51        0        0
     51  6.250E+01 0.000E+00 0.000E+00 0.000E+00 0.000E+00    1       52        0        0
     52  6.250E+01 0.000E+00 0.000E+00 0.000E+00 0.000E+00    1       53        0        0
     53  6.250E+01 0.000E+00 0.000E+00 0.000E+00 0.000E+00    1       54        0        0
     54  6.250E+01 0.000E+00 0.000E+00 0.000E+00 0.000E+00    1       55        0        0
     55  6.250E+01 0.000E+00 0.000E+00 0.000E+00 0.000E+00    1       56        0        0
     56  6.250E+01 0.000E+00 0.000E+00 0.000E+00 0.000E+00    1       57        0        0
     57  6.250E+01 0.000E+00 0.000E+00 0.000E+00 0.000E+00    1       58        0        0
     58  6.250E+01 0.000E+00 0.000E+00 0.000E+00 0.000E+00    1       59        0        0
     59  6.250E+01 0.000E+00 0.000E+00 0.000E+00 0.000E+00    1       60        0        0
     60  6.250E+01 0.000E+00 0.000E+00 0.000E+00 0.000E+00    1       61        0        0
     61  6.250E+01 0.000E+00 0.000E+00 0.000E+00 0.000E+00    1       62        0        0
     62  6.250E+01 0.000E+00 0.000E+00 0.000E+00 0.000E+00    1       63        0        0
     63  6.250E+01 0.000E+00 0.000E+00 0.000E+00 0.000E+00    1       64        0        0
     64  6.250E+01 0.000E+00 0.000E+00 0.000E+00 0.000E+00    1       65        0        0
     65  6.250E+01 0.000E+00 0.000E+00 0.000E+00 0.000E+00    1       66        0        0
     66  6.250E+01 0.000E+00 0.000E+00 0.000E+00 0.000E+00    1       67        0        0
     67  6.250E+01 0.000E+00 0.000E+00 0.000E+00 0.000E+00    1       68        0        0
     68  6.250E+01 0.000E+00 0.000E+00 0.000E+00 0.000E+00    1       69        0        0
     69  6.250E+01 0.000E+00 0.000E+00 0.000E+00 0.000E+00    1       70        0        0
     70  6.250E+01 0.000E+00 0.000E+00 0.000E+00 0.000E+00    1       71        0        0
     71  6.250E+01 0.000E+00 0.000E+00 0.000E+00 0.000E+00    1       72        0        0
     72  6.250E+01 0.000E+00 0.000E+00 0.000E+00 0.000E+00    1       73        0        0
     73  6.250E+01 0.000E+00 0.000E+00 0.000E+00 0.000E+00    1       74        0        0
     74  6.250E+01 0.000E+00 0.000E+00 0.000E+00 0.000E+00    1       75        0        0
     75  6.250E+01 0.000E+00 0.000E+00 0.000E+00 0.000E+00    1       76        0        0
     76  6.250E+01 0.000E+00 0.000E+00 0.000E+00 0.000E+00    1       77        0        0
     77  6.250E+01 0.000E+00 0.000E+00 0.000E+00 0.000E+00    1       78        0        0
     78  6.250E+01 0.000E+00 0.000E+00 0.000E+00 0.000E+00    1       79        0        0
     79  6.250E+01 0.000E+00 0.000E+00 0.000E+00 0.000E+00    1       80        0        0
     80  6.250E+01 0.000E+00 0.000E+00 0.000E+00 0.000E+00    1       81        0        0
     81  6.250E+01 0.000E+00 0.000E+00 0.000E+00 0.000E+00    1       82        0        0
     82  6.250E+01 0.000E+00 0.000E+00 0.000E+00 0.000E+00    1       83        0        0
     83  6.250E+01 0.000E+00 0.000E+00 0.000E+00 0.000E+00    1       84        0        0
     84  6.250E+01 0.000E+00 0.000E+00 0.000E+00 0.000E+00    1       85        0        0
     85  6.250E+01 0.000E+00 0.000E+00 0.000E+00 0.000E+00    1       86        0        0
     86  6.250E+01 0.000E+00 0.000E+00 0.000E+00 0.000E+00    1       87        0        0
     87  6.250E+01 0.000E+00 0.000E+00 0.000E+00 0.000E+00    1       88        0        0
     88  6.250E+01 0.000E+00 0.000E+00 0.000E+00 0.000E+00    1       89        0        0
     89  6.250E+01 0.000E+00 0.000E+00 0.000E+00 0.000E+00    1       90        0        0
     90  6.250E+01 0.000E+00 0.000E+00 0.000E+00 0.000E+00    1       91        0        0
     91  6.250E+01 0.000E+00 0.000E+00 0.000E+00 0.000E+00    1       92        0        0
     92  6.250E+01 0.000E+00 0.000E+00 0.000E+00 0.000E+00    1       93        0        0
     93  6.250E+01 0.000E+00 0.000E+00 0.000E+00 0.000E+00    1       94        0        0
     94  6.250E+01 0.000E+00 0.000E+00 0.000E+00 0.000E+00    1       95        0        0
     95  6.250E+01 0.000E+00 0.000E+00 0.000E+00 0.000E+00    1       96        0        0
     96  6.250E+01 0.000E+00 0.000E+00 0.000E+00 0.000E+00    1       97        0        0
     97  6.250E+01 0.000E+00 0.000E+00 0.000E+00 0.000E+00    1       98        0        0
     98  6.250E+01 0.000E+00 0.000E+00 0.000E+00 0.000E+00    1       99        0        0
     99  6.250E+01 0.000E+00 0.000E+00 0.000E+00 0.000E+00    1      100        0        0
    100  6.250E+01 0.000E+00 0.000E+00 0.000E+00 0.000E+00    1      101        0        0
    101  6.250E+01 0.000E+00 0.000E+00 0.000E+00 0.000E+00    1      102        0        0
    102  6.250E+01 0.000E+00 0.000E+00 0.000E+00 0.000E+00    1      103        0        0
    103  6.250E+01 0.000E+00 0.000E+00 0.000E+00 0.000E+00    1      104        0        0
    104  6.250E+01 0.000E+00 0.000E+00 0.000E+00 0.000E+00    1      105        0        0
    105  6.250E+01 0.000E+00 0.000E+00 0.000E+00 0.000E+00    1      106        0        0
    106  6.250E+01 0.000E+00 0.000E+00 0.000E+00 0.000E+00    1      107        0        0
    107  6.250E+01 0.000E+00 0.000E+00 0.000E+00 0.000E+00    1      108        0        0
    108  6.250E+01 0.000E+00 0.000E+00 0.000E+00 0.000E+00    1      109        0        0
    109  6.250E+01 0.000E+00 0.000E+00 0.000E+00 0.000E+00    1      110        0        0
    110  6.250E+01 0.000E+00 0.000E+00 0.000E+00 0.000E+00    1      111        0        0
    111  6.250E+01 0.000E+00 0.000E+00 0.000E+00 0.000E+00    1      112        0        0
    112  6.250E+01 0.000E+00 0.000E+00 0.000E+00 0.000E+00    1      113        0        0
    113  6.250E+01 0.000E+00 0.000E+00 0.000E+00 0.000E+00    1      114        0        0
    114  6.250E+01 0.000E+00 0.000E+00 0.000E+00 0.000E+00    1      115        0        0
    115  6.250E+01 0.000E+00 0.000E+00 0.000E+00 0.000E+00    1      116        0        0
    116  6.250E+01 0.000E+00 0.000E+00 0.000E+00 0.000E+00    1      117        0        0
    117  6.250E+01 0.000E+00 0.000E+00 0.000E+00 0.000E+00    1      118        0        0
    118  6.250E+01 0.000E+00 0.000E+00 0.000E+00 0.000E+00    1      119        0        0
    119  6.250E+01 0.000E+00 0.000E+00 0.000E+00 0.000E+00    1      120        0        0
    120  6.250E+01 0.000E+00 0.000E+00 0.000E+00 0.000E+00    1      121        0        0
    121  6.250E+01 0.000E+00 0.000E+00 0.000E+00 0.000E+00    1      122        0        0
    122  6.250E+01 0.000E+00 0.000E+00 0.000E+00 0.000E+00    1      123        0        0
    123  6.250E+01 0.000E+00 0.000E+00 0.000E+00 0.000E+00    1      124        0        0
    124  6.250E+01 0.000E+00 0.000E+00 0.000E+00 0.000E+00    1      125        0        0
    125  6.250E+01 0.000E+00 0.000E+00 0.000E+00 0.000E+00    1      126        0        0
    126  6.250E+01 0.000E+00 0.000E+00 0.000E+00 0.000E+00    1      127        0        0
    127  6.250E+01 0.000E+00 0.000E+00 0.000E+00 0.000E+00    1      128        0        0
    128  6.250E+01 0.000E+00 0.000E+00 0.000E+00 0.000E+00    1      129        0        0
    129  6.250E+01 0.000E+00 0.000E+00 0.000E+00 0.000E+00    1      130        0        0
    130  6.250E+01 0.000E+00 0.000E+00 0.000E+00 0.000E+00    1      131        0        0
    131  6.250E+01 0.000E+00 0.000E+00 0.000E+00 0.000E+00    1      132        0        0
    132  6.250E+01 0.000E+00 0.000E+00 0.000E+00 0.000E+00    1      133        0        0
    133  6.250E+01 0.000E+00 0.000E+00 0.000E+00 0.000E+00    1      134        0        0
    134  6.250E+01 0.000E+00 0.000E+00 0.000E+00 0.000E+00    1      135        0        0
    135  6.250E+01 0.000E+00 0.000E+00 0.000E+00 0.000E+00    1      136        0        0
    136  6.250E+01 0.000E+00 0.000E+00 0.000E+00 0.000E+00    1      137        0        0
    137  6.250E+01 0.000E+00 0.000E+00 0.000E+00 0.000E+00    1      138        0        0
    138  6.250E+01 0.000E+00 0.000E+00 0.000E+00 0.000E+00    1      139        0        0
    139  6.250E+01 0.000E+00 0.000E+00 0.000E+00 0.000E+00    1      140        0        0
    140  6.250E+01 0.000E+00 0.000E+00 0.000E+00 0.000E+00    1      141        0        0
    141  6.250E+01 0.000E+00 0.000E+00 0.000E+00 0.000E+00    1      142        0        0
    142  6.250E+01 0.000E+00 0.000E+00 0.000E+00 0.000E+00    1      143        0        0
    143  6.250E+01 0.000E+00 0.000E+00 0.000E+00 0.000E+00    1      144        0        0
    144  6.250E+01 0.000E+00 0.000E+00 0.000E+00 0.000E+00    1      145        0        0
    145  6.250E+01 0.000E+00 0.000E+00 0.000E+00 0.000E+00    1      146        0        0
    146  6.250E+01 0.000E+00 0.000E+00 0.000E+00 0.000E+00    1      147        0        0
    147  6.250E+01 0.000E+00 0.000E+00 0.000E+00 0.000E+00    1      148        0        0
    148  6.250E+01 0.000E+00 0.000E+00 0.000E+00 0.000E+00    1      149        0        0
    149  6.250E+01 0.000E+00 0.000E+00 0.000E+00 0.000E+00    1      150        0        0
    150  6.250E+01 0.000E+00 0.000E+00 0.000E+00 0.000E+00    1      151        0        0
    151  6.250E+01 0.000E+00 0.000E+00 0.000E+00 0.000E+00    1      152        0        0
    152  6.250E+01 0.000E+00 0.000E+00 0.000E+00 0.000E+00    1      153        0        0
    153  6.250E+01 0.000E+00 0.000E+00 0.000E+00 0.000E+00    1      154        0        0
    154  6.250E+01 0.000E+00 0.000E+00 0.000E+00 0.000E+00    1      155        0        0
    155  6.250E+01 0.000E+00 0.000E+00 0.000E+00 0.000E+00    1      156        0        0
    156  6.250E+01 0.000E+00 0.000E+00 0.000E+00 0.000E+00    1      157        0        0
    157  6.250E+01 0.000E+00 0.000E+00 0.000E+00 0.000E+00    1      158        0        0
    158  6.250E+01 0.000E+00 0.000E+00 0.000E+00 0.000E+00    1      159        0        0
    159  6.250E+01 0.000E+00 0.000E+00 0.000E+00 0.000E+00    1      160        0        0
    160  6.250E+01 0.000E+00 0.000E+00 0.000E+00 0.000E+00    1      161        0        0


         STREAMBED PROPERTIES AND STREAM DIMENSIONS

 SEGMENT     WIDTH OF STREAM     DEPTH OF STREAM    STREAM ROUGHNESS
    No.     UPPER     LOWER     UPPER     LOWER     CHANNEL      BANK

     1    5.000E+00 5.000E+00                      1.000E-01
     2    5.000E+00 5.000E+00                      1.000E-01
     3    5.000E+00 5.000E+00                      1.000E-01
     4    5.000E+00 5.000E+00                      1.000E-01
     5    5.000E+00 5.000E+00                      1.000E-01
     6    5.000E+00 5.000E+00                      1.000E-01
     7    5.000E+00 5.000E+00                      1.000E-01
     8    5.000E+00 5.000E+00                      1.000E-01
     9    5.000E+00 5.000E+00                      1.000E-01
    10    5.000E+00 5.000E+00                      1.000E-01
    11    5.000E+00 5.000E+00                      1.000E-01
    12    5.000E+00 5.000E+00                      1.000E-01
    13    5.000E+00 5.000E+00                      1.000E-01
    14    5.000E+00 5.000E+00                      1.000E-01
    15    5.000E+00 5.000E+00                      1.000E-01
    16    5.000E+00 5.000E+00                      1.000E-01
    17    5.000E+00 5.000E+00                      1.000E-01
    18    5.000E+00 5.000E+00                      1.000E-01
    19    5.000E+00 5.000E+00                      1.000E-01
    20    5.000E+00 5.000E+00                      1.000E-01
    21    5.000E+00 5.000E+00                      1.000E-01
    22    5.000E+00 5.000E+00                      1.000E-01
    23    5.000E+00 5.000E+00                      1.000E-01
    24    5.000E+00 5.000E+00                      1.000E-01
    25    5.000E+00 5.000E+00                      1.000E-01
    26    5.000E+00 5.000E+00                      1.000E-01
    27    5.000E+00 5.000E+00                      1.000E-01
    28    5.000E+00 5.000E+00                      1.000E-01
    29    5.000E+00 5.000E+00                      1.000E-01
    30    5.000E+00 5.000E+00                      1.000E-01
    31    5.000E+00 5.000E+00                      1.000E-01
    32    5.000E+00 5.000E+00                      1.000E-01
    33    5.000E+00 5.000E+00                      1.000E-01
    34    5.000E+00 5.000E+00                      1.000E-01
    35    5.000E+00 5.000E+00                      1.000E-01
    36    5.000E+00 5.000E+00                      1.000E-01
    37    5.000E+00 5.000E+00                      1.000E-01
    38    5.000E+00 5.000E+00                      1.000E-01
    39    5.000E+00 5.000E+00                      1.000E-01
    40    5.000E+00 5.000E+00                      1.000E-01
    41    5.000E+00 5.000E+00                      1.000E-01
    42    5.000E+00 5.000E+00                      1.000E-01
    43    5.000E+00 5.000E+00                      1.000E-01
    44    5.000E+00 5.000E+00                      1.000E-01
    45    5.000E+00 5.000E+00                      1.000E-01
    46    5.000E+00 5.000E+00                      1.000E-01
    47    5.000E+00 5.000E+00                      1.000E-01
    48    5.000E+00 5.000E+00                      1.000E-01
    49    5.000E+00 5.000E+00                      1.000E-01
    50    5.000E+00 5.000E+00                      1.000E-01
    51    5.000E+00 5.000E+00                      1.000E-01
    52    5.000E+00 5.000E+00                      1.000E-01
    53    5.000E+00 5.000E+00                      1.000E-01
    54    5.000E+00 5.000E+00                      1.000E-01
    55    5.000E+00 5.000E+00                      1.000E-01
    56    5.000E+00 5.000E+00                      1.000E-01
    57    5.000E+00 5.000E+00                      1.000E-01
    58    5.000E+00 5.000E+00                      1.000E-01
    59    5.000E+00 5.000E+00                      1.000E-01
    60    5.000E+00 5.000E+00                      1.000E-01
    61    5.000E+00 5.000E+00                      1.000E-01
    62    5.000E+00 5.000E+00                      1.000E-01
    63    5.000E+00 5.000E+00                      1.000E-01
    64    5.000E+00 5.000E+00                      1.000E-01
    65    5.000E+00 5.000E+00                      1.000E-01
    66    5.000E+00 5.000E+00                      1.000E-01
    67    5.000E+00 5.000E+00                      1.000E-01
    68    5.000E+00 5.000E+00                      1.000E-01
    69    5.000E+00 5.000E+00                      1.000E-01
    70    5.000E+00 5.000E+00                      1.000E-01
    71    5.000E+00 5.000E+00                      1.000E-01
    72    5.000E+00 5.000E+00                      1.000E-01
    73    5.000E+00 5.000E+00                      1.000E-01
    74    5.000E+00 5.000E+00                      1.000E-01
    75    5.000E+00 5.000E+00                      1.000E-01
    76    5.000E+00 5.000E+00                      1.000E-01
    77    5.000E+00 5.000E+00                      1.000E-01
    78    5.000E+00 5.000E+00                      1.000E-01
    79    5.000E+00 5.000E+00                      1.000E-01
    80    5.000E+00 5.000E+00                      1.000E-01
    81    5.000E+00 5.000E+00                      1.000E-01
    82    5.000E+00 5.000E+00                      1.000E-01
    83    5.000E+00 5.000E+00                      1.000E-01
    84    5.000E+00 5.000E+00                      1.000E-01
    85    5.000E+00 5.000E+00                      1.000E-01
    86    5.000E+00 5.000E+00                      1.000E-01
    87    5.000E+00 5.000E+00                      1.000E-01
    88    5.000E+00 5.000E+00                      1.000E-01
    89    5.000E+00 5.000E+00                      1.000E-01
    90    5.000E+00 5.000E+00                      1.000E-01
    91    5.000E+00 5.000E+00                      1.000E-01
    92    5.000E+00 5.000E+00                      1.000E-01
    93    5.000E+00 5.000E+00                      1.000E-01
    94    5.000E+00 5.000E+00                      1.000E-01
    95    5.000E+00 5.000E+00                      1.000E-01
    96    5.000E+00 5.000E+00                      1.000E-01
    97    5.000E+00 5.000E+00                      1.000E-01
    98    5.000E+00 5.000E+00                      1.000E-01
    99    5.000E+00 5.000E+00                      1.000E-01
   100    5.000E+00 5.000E+00                      1.000E-01
   101    5.000E+00 5.000E+00                      1.000E-01
   102    5.000E+00 5.000E+00                      1.000E-01
   103    5.000E+00 5.000E+00                      1.000E-01
   104    5.000E+00 5.000E+00                      1.000E-01
   105    5.000E+00 5.000E+00                      1.000E-01
   106    5.000E+00 5.000E+00                      1.000E-01
   107    5.000E+00 5.000E+00                      1.000E-01
   108    5.000E+00 5.000E+00                      1.000E-01
   109    5.000E+00 5.000E+00                      1.000E-01
   110    5.000E+00 5.000E+00                      1.000E-01
   111    5.000E+00 5.000E+00                      1.000E-01
   112    5.000E+00 5.000E+00                      1.000E-01
   113    5.000E+00 5.000E+00                      1.000E-01
   114    5.000E+00 5.000E+00                      1.000E-01
   115    5.000E+00 5.000E+00                      1.000E-01
   116    5.000E+00 5.000E+00                      1.000E-01
   117    5.000E+00 5.000E+00                      1.000E-01
   118    5.000E+00 5.000E+00                      1.000E-01
   119    5.000E+00 5.000E+00                      1.000E-01
   120    5.000E+00 5.000E+00                      1.000E-01
   121    5.000E+00 5.000E+00                      1.000E-01
   122    5.000E+00 5.000E+00                      1.000E-01
   123    5.000E+00 5.000E+00                      1.000E-01
   124    5.000E+00 5.000E+00                      1.000E-01
   125    5.000E+00 5.000E+00                      1.000E-01
   126    5.000E+00 5.000E+00                      1.000E-01
   127    5.000E+00 5.000E+00                      1.000E-01
   128    5.000E+00 5.000E+00                      1.000E-01
   129    5.000E+00 5.000E+00                      1.000E-01
   130    5.000E+00 5.000E+00                      1.000E-01
   131    5.000E+00 5.000E+00                      1.000E-01
   132    5.000E+00 5.000E+00                      1.000E-01
   133    5.000E+00 5.000E+00                      1.000E-01
   134    5.000E+00 5.000E+00                      1.000E-01
   135    5.000E+00 5.000E+00                      1.000E-01
   136    5.000E+00 5.000E+00                      1.000E-01
   137    5.000E+00 5.000E+00                      1.000E-01
   138    5.000E+00 5.000E+00                      1.000E-01
   139    5.000E+00 5.000E+00                      1.000E-01
   140    5.000E+00 5.000E+00                      1.000E-01
   141    5.000E+00 5.000E+00                      1.000E-01
   142    5.000E+00 5.000E+00                      1.000E-01
   143    5.000E+00 5.000E+00                      1.000E-01
   144    5.000E+00 5.000E+00                      1.000E-01
   145    5.000E+00 5.000E+00                      1.000E-01
   146    5.000E+00 5.000E+00                      1.000E-01
   147    5.000E+00 5.000E+00                      1.000E-01
   148    5.000E+00 5.000E+00                      1.000E-01
   149    5.000E+00 5.000E+00                      1.000E-01
   150    5.000E+00 5.000E+00                      1.000E-01
   151    5.000E+00 5.000E+00                      1.000E-01
   152    5.000E+00 5.000E+00                      1.000E-01
   153    5.000E+00 5.000E+00                      1.000E-01
   154    5.000E+00 5.000E+00                      1.000E-01
   155    5.000E+00 5.000E+00                      1.000E-01
   156    5.000E+00 5.000E+00                      1.000E-01
   157    5.000E+00 5.000E+00                      1.000E-01
   158    5.000E+00 5.000E+00                      1.000E-01
   159    5.000E+00 5.000E+00                      1.000E-01
   160    5.000E+00 5.000E+00                      1.000E-01



 
 SOLVING FOR HEAD 
 Negative cell thickness at node  1432
 Negative cell thickness at node  1456
 Negative cell thickness at node  1457
 Negative cell thickness at node  1458
 Negative cell thickness at node  1459

 CELL CONVERSIONS FOR ITER.=  1  LAYER=      1  STEP=      1  PERIOD=      1   (NODE)
    DRY(   1432)   DRY(   1456)   DRY(   1457)   DRY(   1458)   DRY(   1459)   
 Negative cell thickness at node  1460
 Negative cell thickness at node  1462
 Negative cell thickness at node  1463
 Negative cell thickness at node  1464
    DRY(   1460)   DRY(   1462)   DRY(   1463)   DRY(   1464)   


 OUTER ITERATION SUMMARY
 -----------------------
 BT: Backtracking; LA: Linear Acceleration; UR: Under-relaxation

    Outer-Iteration  Inner-Iteration    Maximum Head Change  Maximum Head Change
        Number           Count               Value              Location
LA         1               14               -4.9314                  3446           GWF-node number
LA         2               11              -0.47721E-01              1094           GWF-node number
LA         3                8              -0.19638E-02              4080           GWF-node number
LA         4                3              -0.28259E-03               284           GWF-node number
LA         5                3              -0.65971E-04              4449           GWF-node number


     5 CALLS TO SPARSE MATRIX SOLVER PACKAGE  IN FLOW TIME STEP   1 STRESS PERIOD   1

 TOTAL OF       5OUTER ITERATIONS
  MAXIMUM CHANGE FOR EACH ITERATION:
   MAX. CHANGE        NODE  MAX. CHANGE        NODE  MAX. CHANGE        NODE  MAX. CHANGE        NODE  MAX. CHANGE        NODE
 ------------------------------------------------------------------------------------------------------------------------------------
   -4.9314    ,       3446 -0.47721E-01,       1094 -0.19638E-02,       4080 -0.28259E-03,        284 -0.65971E-04,       4449

 OUTPUT CONTROL FOR STRESS PERIOD        1   TIME STEP        1
    SAVE HEAD FOR ALL LAYERS
    SAVE BUDGET
 UBDSV2U SAVING "   CONSTANT HEAD" ON UNIT  50 AT TIME STEP      1, STRESS PERIOD      1
 UBDSV1U SAVING "   FLOW JA FACE " ON UNIT  50 AT TIME STEP      1, STRESS PERIOD      1
 UBDSV4U SAVING "           WELLS" ON UNIT  50 AT TIME STEP      1, STRESS PERIOD      1
 UBDSV4U SAVING " HEAD DEP BOUNDS" ON UNIT  50 AT TIME STEP      1, STRESS PERIOD      1
 UBDSV3U SAVING "        RECHARGE" ON UNIT  50 AT TIME STEP      1, STRESS PERIOD      1
 UBDSV2U SAVING "  STREAM LEAKAGE" ON UNIT  50 AT TIME STEP      1, STRESS PERIOD      1




 HEAD WILL BE SAVED ON UNIT   51 AT END OF TIME STEP   1, STRESS PERIOD    1
1
  VOLUMETRIC BUDGET FOR ENTIRE MODEL AT END OF TIME STEP       1 IN STRESS PERIOD       1
  ---------------------------------------------------------------------------------------

     CUMULATIVE VOLUMES      L**3       RATES FOR THIS TIME STEP      L**3/T
     ------------------                 ------------------------

           IN:                                      IN:
           ---                                      ---
             STORAGE =           0.0000               STORAGE =           0.0000
       CONSTANT HEAD =           0.0000         CONSTANT HEAD =           0.0000
               WELLS =           0.0000                 WELLS =           0.0000
     HEAD DEP BOUNDS =         374.4150       HEAD DEP BOUNDS =         374.4150
            RECHARGE =        2588.7600              RECHARGE =        2588.7600
      STREAM LEAKAGE =          69.4542        STREAM LEAKAGE =          69.4542

            TOTAL IN =        3032.6292              TOTAL IN =        3032.6292

          OUT:                                     OUT:
          ----                                     ----
             STORAGE =           0.0000               STORAGE =           0.0000
       CONSTANT HEAD =           0.0000         CONSTANT HEAD =           0.0000
               WELLS =        2250.0000                 WELLS =        2250.0000
     HEAD DEP BOUNDS =         484.4312       HEAD DEP BOUNDS =         484.4312
            RECHARGE =           0.0000              RECHARGE =           0.0000
      STREAM LEAKAGE =         298.1992        STREAM LEAKAGE =         298.1992

           TOTAL OUT =        3032.6303             TOTAL OUT =        3032.6303

            IN - OUT =      -1.1368E-03              IN - OUT =      -1.1368E-03

 PERCENT DISCREPANCY =          -0.00     PERCENT DISCREPANCY =          -0.00






          TIME SUMMARY AT END OF TIME STEP         1 IN STRESS PERIOD         1
                    SECONDS     MINUTES      HOURS       DAYS        YEARS
                    -----------------------------------------------------------
   TIME STEP LENGTH  86400.      1440.0      24.000      1.0000     2.73785E-03
 STRESS PERIOD TIME  86400.      1440.0      24.000      1.0000     2.73785E-03
         TOTAL TIME  86400.      1440.0      24.000      1.0000     2.73785E-03
1
1
                            STRESS PERIOD NO.    2, LENGTH =   31.00000    
                            -----------------------------------------------

                              NUMBER OF TIME STEPS =     1

                               MULTIPLIER FOR DELT =     1.000

                            INITIAL TIME STEP SIZE =   31.00000    

 WEL -- WELL PACKAGE, VERSION 7, 5/2/2005 INPUT READ FROM UNIT   20

 WELL NO.      NODE       STRESS FACTOR         
 -----------------------------------------------
      1        3324      -134.4    
      2        3409      -134.4    
      3        3737      -134.4    
      4        3971      -134.4    
      5        4092      -134.4    
      6        4297      -134.4    

      6 WELLS

 GHB -- GENERAL-HEAD BOUNDARY PACKAGE, VERSION 7, 5/2/2005
         INPUT READ FROM UNIT   30

 BOUND NO.     NODE         STAGE         CONDUCTANCE         
 -------------------------------------------------------------
      1        1473       33.50           70.00    
      2        1474       33.50           70.00    
      3        1475       33.50           70.00    
      4        1476       33.50           70.00    
      5        1477       33.50           70.00    
      6        1478       33.50           70.00    
      7        1479       33.50           70.00    
      8        1480       33.50           70.00    
      9        1481       33.50           70.00    
     10        1482       33.50           70.00    
     11        2972       33.50           70.00    
     12        2973       33.50           70.00    
     13        2974       33.50           70.00    
     14        2975       33.50           70.00    
     15        2976       33.50           70.00    
     16        2977       33.50           70.00    
     17        2978       33.50           70.00    
     18        2979       33.50           70.00    
     19        2980       33.50           70.00    
     20        2981       33.50           70.00    
     21        4471       33.50           70.00    
     22        4472       33.50           70.00    
     23        4473       33.50           70.00    
     24        4474       33.50           70.00    
     25        4475       33.50           70.00    
     26        4476       33.50           70.00    
     27        4477       33.50           70.00    
     28        4478       33.50           70.00    
     29        4479       33.50           70.00    
     30        4480       33.50           70.00    
     31        2999       35.50           70.00    
     32        3000       35.50           70.00    
     33        3001       35.50           70.00    
     34        3002       35.50           70.00    
     35        3003       35.50           70.00    
     36        3004       35.50           70.00    
     37        3005       35.50           70.00    
     38        3006       35.50           70.00    
     39        3007       35.50           70.00    
     40        3008       35.50           70.00    
     41        3009       35.50           70.00    
     42        3010       35.50           70.00    
     43        3011       35.50           70.00    
     44        3012       35.50           70.00    
     45        3013       35.50           70.00    
     46        3023       35.50           4.375    
     47        3027       35.50           17.50    
     48        3028       35.50           70.00    
     49        3029       35.50           70.00    
     50        3030       35.50           70.00    

     50 GHB CELLS

 RCH -- RECHARGE PACKAGE, VERSION 7, 5/2/2005 INPUT READ FROM UNIT   31



                           RECHARGE
 READING ON UNIT   31 WITH FORMAT: (1499E15.6)         



 CLASSIFICATION & COUNT OF STREAM SEGMENTS BASED ON SOURCE OF INFLOW:

                HEADWATER     DIVERSION     RECEIVES TRIBUTARY FLOW
                ---------     ---------     -----------------------
                     1              0             159



                    INPUT DATA FOR EACH STREAM SEGMENT
 ---------------------------------------------------------------------------------------------

 SEGMENT    SEG.     INFLOW   OVERLAND   STREAM    STREAM   ICALC  OUTFLOW  DIVERSION PRIORITY
    NO.    LENGTH     RATE     RUNOFF      ET       PPT.    METH.  TO SEG.  FROM SEG.    NO.

      1  6.250E+01 1.547E+04 0.000E+00 0.000E+00 0.000E+00    1        2        0        0
      2  6.250E+01 0.000E+00 0.000E+00 0.000E+00 0.000E+00    1        3        0        0
      3  6.250E+01 0.000E+00 0.000E+00 0.000E+00 0.000E+00    1        4        0        0
      4  6.250E+01 0.000E+00 0.000E+00 0.000E+00 0.000E+00    1        5        0        0
      5  6.250E+01 0.000E+00 0.000E+00 0.000E+00 0.000E+00    1        6        0        0
      6  6.250E+01 0.000E+00 0.000E+00 0.000E+00 0.000E+00    1        7        0        0
      7  6.250E+01 0.000E+00 0.000E+00 0.000E+00 0.000E+00    1        8        0        0
      8  6.250E+01 0.000E+00 0.000E+00 0.000E+00 0.000E+00    1        9        0        0
      9  6.250E+01 0.000E+00 0.000E+00 0.000E+00 0.000E+00    1       10        0        0
     10  6.250E+01 0.000E+00 0.000E+00 0.000E+00 0.000E+00    1       11        0        0
     11  6.250E+01 0.000E+00 0.000E+00 0.000E+00 0.000E+00    1       12        0        0
     12  6.250E+01 0.000E+00 0.000E+00 0.000E+00 0.000E+00    1       13        0        0
     13  6.250E+01 0.000E+00 0.000E+00 0.000E+00 0.000E+00    1       14        0        0
     14  6.250E+01 0.000E+00 0.000E+00 0.000E+00 0.000E+00    1       15        0        0
     15  6.250E+01 0.000E+00 0.000E+00 0.000E+00 0.000E+00    1       16        0        0
     16  6.250E+01 0.000E+00 0.000E+00 0.000E+00 0.000E+00    1       17        0        0
     17  6.250E+01 0.000E+00 0.000E+00 0.000E+00 0.000E+00    1       18        0        0
     18  6.250E+01 0.000E+00 0.000E+00 0.000E+00 0.000E+00    1       19        0        0
     19  6.250E+01 0.000E+00 0.000E+00 0.000E+00 0.000E+00    1       20        0        0
     20  6.250E+01 0.000E+00 0.000E+00 0.000E+00 0.000E+00    1       21        0        0
     21  6.250E+01 0.000E+00 0.000E+00 0.000E+00 0.000E+00    1       22        0        0
     22  6.250E+01 0.000E+00 0.000E+00 0.000E+00 0.000E+00    1       23        0        0
     23  6.250E+01 0.000E+00 0.000E+00 0.000E+00 0.000E+00    1       24        0        0
     24  6.250E+01 0.000E+00 0.000E+00 0.000E+00 0.000E+00    1       25        0        0
     25  6.250E+01 0.000E+00 0.000E+00 0.000E+00 0.000E+00    1       26        0        0
     26  6.250E+01 0.000E+00 0.000E+00 0.000E+00 0.000E+00    1       27        0        0
     27  6.250E+01 0.000E+00 0.000E+00 0.000E+00 0.000E+00    1       28        0        0
     28  6.250E+01 0.000E+00 0.000E+00 0.000E+00 0.000E+00    1       29        0        0
     29  6.250E+01 0.000E+00 0.000E+00 0.000E+00 0.000E+00    1       30        0        0
     30  6.250E+01 0.000E+00 0.000E+00 0.000E+00 0.000E+00    1       31        0        0
     31  6.250E+01 0.000E+00 0.000E+00 0.000E+00 0.000E+00    1       32        0        0
     32  6.250E+01 0.000E+00 0.000E+00 0.000E+00 0.000E+00    1       33        0        0
     33  6.250E+01 0.000E+00 0.000E+00 0.000E+00 0.000E+00    1       34        0        0
     34  6.250E+01 0.000E+00 0.000E+00 0.000E+00 0.000E+00    1       35        0        0
     35  6.250E+01 0.000E+00 0.000E+00 0.000E+00 0.000E+00    1       36        0        0
     36  6.250E+01 0.000E+00 0.000E+00 0.000E+00 0.000E+00    1       37        0        0
     37  6.250E+01 0.000E+00 0.000E+00 0.000E+00 0.000E+00    1       38        0        0
     38  6.250E+01 0.000E+00 0.000E+00 0.000E+00 0.000E+00    1       39        0        0
     39  6.250E+01 0.000E+00 0.000E+00 0.000E+00 0.000E+00    1       40        0        0
     40  6.250E+01 0.000E+00 0.000E+00 0.000E+00 0.000E+00    1       41        0        0
     41  6.250E+01 0.000E+00 0.000E+00 0.000E+00 0.000E+00    1       42        0        0
     42  6.250E+01 0.000E+00 0.000E+00 0.000E+00 0.000E+00    1       43        0        0
     43  6.250E+01 0.000E+00 0.000E+00 0.000E+00 0.000E+00    1       44        0        0
     44  6.250E+01 0.000E+00 0.000E+00 0.000E+00 0.000E+00    1       45        0        0
     45  6.250E+01 0.000E+00 0.000E+00 0.000E+00 0.000E+00    1       46        0        0
     46  6.250E+01 0.000E+00 0.000E+00 0.000E+00 0.000E+00    1       47        0        0
     47  6.250E+01 0.000E+00 0.000E+00 0.000E+00 0.000E+00    1       48        0        0
     48  6.250E+01 0.000E+00 0.000E+00 0.000E+00 0.000E+00    1       49        0        0
     49  6.250E+01 0.000E+00 0.000E+00 0.000E+00 0.000E+00    1       50        0        0
     50  6.250E+01 0.000E+00 0.000E+00 0.000E+00 0.000E+00    1       51        0        0
     51  6.250E+01 0.000E+00 0.000E+00 0.000E+00 0.000E+00    1       52        0        0
     52  6.250E+01 0.000E+00 0.000E+00 0.000E+00 0.000E+00    1       53        0        0
     53  6.250E+01 0.000E+00 0.000E+00 0.000E+00 0.000E+00    1       54        0        0
     54  6.250E+01 0.000E+00 0.000E+00 0.000E+00 0.000E+00    1       55        0        0
     55  6.250E+01 0.000E+00 0.000E+00 0.000E+00 0.000E+00    1       56        0        0
     56  6.250E+01 0.000E+00 0.000E+00 0.000E+00 0.000E+00    1       57        0        0
     57  6.250E+01 0.000E+00 0.000E+00 0.000E+00 0.000E+00    1       58        0        0
     58  6.250E+01 0.000E+00 0.000E+00 0.000E+00 0.000E+00    1       59        0        0
     59  6.250E+01 0.000E+00 0.000E+00 0.000E+00 0.000E+00    1       60        0        0
     60  6.250E+01 0.000E+00 0.000E+00 0.000E+00 0.000E+00    1       61        0        0
     61  6.250E+01 0.000E+00 0.000E+00 0.000E+00 0.000E+00    1       62        0        0
     62  6.250E+01 0.000E+00 0.000E+00 0.000E+00 0.000E+00    1       63        0        0
     63  6.250E+01 0.000E+00 0.000E+00 0.000E+00 0.000E+00    1       64        0        0
     64  6.250E+01 0.000E+00 0.000E+00 0.000E+00 0.000E+00    1       65        0        0
     65  6.250E+01 0.000E+00 0.000E+00 0.000E+00 0.000E+00    1       66        0        0
     66  6.250E+01 0.000E+00 0.000E+00 0.000E+00 0.000E+00    1       67        0        0
     67  6.250E+01 0.000E+00 0.000E+00 0.000E+00 0.000E+00    1       68        0        0
     68  6.250E+01 0.000E+00 0.000E+00 0.000E+00 0.000E+00    1       69        0        0
     69  6.250E+01 0.000E+00 0.000E+00 0.000E+00 0.000E+00    1       70        0        0
     70  6.250E+01 0.000E+00 0.000E+00 0.000E+00 0.000E+00    1       71        0        0
     71  6.250E+01 0.000E+00 0.000E+00 0.000E+00 0.000E+00    1       72        0        0
     72  6.250E+01 0.000E+00 0.000E+00 0.000E+00 0.000E+00    1       73        0        0
     73  6.250E+01 0.000E+00 0.000E+00 0.000E+00 0.000E+00    1       74        0        0
     74  6.250E+01 0.000E+00 0.000E+00 0.000E+00 0.000E+00    1       75        0        0
     75  6.250E+01 0.000E+00 0.000E+00 0.000E+00 0.000E+00    1       76        0        0
     76  6.250E+01 0.000E+00 0.000E+00 0.000E+00 0.000E+00    1       77        0        0
     77  6.250E+01 0.000E+00 0.000E+00 0.000E+00 0.000E+00    1       78        0        0
     78  6.250E+01 0.000E+00 0.000E+00 0.000E+00 0.000E+00    1       79        0        0
     79  6.250E+01 0.000E+00 0.000E+00 0.000E+00 0.000E+00    1       80        0        0
     80  6.250E+01 0.000E+00 0.000E+00 0.000E+00 0.000E+00    1       81        0        0
     81  6.250E+01 0.000E+00 0.000E+00 0.000E+00 0.000E+00    1       82        0        0
     82  6.250E+01 0.000E+00 0.000E+00 0.000E+00 0.000E+00    1       83        0        0
     83  6.250E+01 0.000E+00 0.000E+00 0.000E+00 0.000E+00    1       84        0        0
     84  6.250E+01 0.000E+00 0.000E+00 0.000E+00 0.000E+00    1       85        0        0
     85  6.250E+01 0.000E+00 0.000E+00 0.000E+00 0.000E+00    1       86        0        0
     86  6.250E+01 0.000E+00 0.000E+00 0.000E+00 0.000E+00    1       87        0        0
     87  6.250E+01 0.000E+00 0.000E+00 0.000E+00 0.000E+00    1       88        0        0
     88  6.250E+01 0.000E+00 0.000E+00 0.000E+00 0.000E+00    1       89        0        0
     89  6.250E+01 0.000E+00 0.000E+00 0.000E+00 0.000E+00    1       90        0        0
     90  6.250E+01 0.000E+00 0.000E+00 0.000E+00 0.000E+00    1       91        0        0
     91  6.250E+01 0.000E+00 0.000E+00 0.000E+00 0.000E+00    1       92        0        0
     92  6.250E+01 0.000E+00 0.000E+00 0.000E+00 0.000E+00    1       93        0        0
     93  6.250E+01 0.000E+00 0.000E+00 0.000E+00 0.000E+00    1       94        0        0
     94  6.250E+01 0.000E+00 0.000E+00 0.000E+00 0.000E+00    1       95        0        0
     95  6.250E+01 0.000E+00 0.000E+00 0.000E+00 0.000E+00    1       96        0        0
     96  6.250E+01 0.000E+00 0.000E+00 0.000E+00 0.000E+00    1       97        0        0
     97  6.250E+01 0.000E+00 0.000E+00 0.000E+00 0.000E+00    1       98        0        0
     98  6.250E+01 0.000E+00 0.000E+00 0.000E+00 0.000E+00    1       99        0        0
     99  6.250E+01 0.000E+00 0.000E+00 0.000E+00 0.000E+00    1      100        0        0
    100  6.250E+01 0.000E+00 0.000E+00 0.000E+00 0.000E+00    1      101        0        0
    101  6.250E+01 0.000E+00 0.000E+00 0.000E+00 0.000E+00    1      102        0        0
    102  6.250E+01 0.000E+00 0.000E+00 0.000E+00 0.000E+00    1      103        0        0
    103  6.250E+01 0.000E+00 0.000E+00 0.000E+00 0.000E+00    1      104        0        0
    104  6.250E+01 0.000E+00 0.000E+00 0.000E+00 0.000E+00    1      105        0        0
    105  6.250E+01 0.000E+00 0.000E+00 0.000E+00 0.000E+00    1      106        0        0
    106  6.250E+01 0.000E+00 0.000E+00 0.000E+00 0.000E+00    1      107        0        0
    107  6.250E+01 0.000E+00 0.000E+00 0.000E+00 0.000E+00    1      108        0        0
    108  6.250E+01 0.000E+00 0.000E+00 0.000E+00 0.000E+00    1      109        0        0
    109  6.250E+01 0.000E+00 0.000E+00 0.000E+00 0.000E+00    1      110        0        0
    110  6.250E+01 0.000E+00 0.000E+00 0.000E+00 0.000E+00    1      111        0        0
    111  6.250E+01 0.000E+00 0.000E+00 0.000E+00 0.000E+00    1      112        0        0
    112  6.250E+01 0.000E+00 0.000E+00 0.000E+00 0.000E+00    1      113        0        0
    113  6.250E+01 0.000E+00 0.000E+00 0.000E+00 0.000E+00    1      114        0        0
    114  6.250E+01 0.000E+00 0.000E+00 0.000E+00 0.000E+00    1      115        0        0
    115  6.250E+01 0.000E+00 0.000E+00 0.000E+00 0.000E+00    1      116        0        0
    116  6.250E+01 0.000E+00 0.000E+00 0.000E+00 0.000E+00    1      117        0        0
    117  6.250E+01 0.000E+00 0.000E+00 0.000E+00 0.000E+00    1      118        0        0
    118  6.250E+01 0.000E+00 0.000E+00 0.000E+00 0.000E+00    1      119        0        0
    119  6.250E+01 0.000E+00 0.000E+00 0.000E+00 0.000E+00    1      120        0        0
    120  6.250E+01 0.000E+00 0.000E+00 0.000E+00 0.000E+00    1      121        0        0
    121  6.250E+01 0.000E+00 0.000E+00 0.000E+00 0.000E+00    1      122        0        0
    122  6.250E+01 0.000E+00 0.000E+00 0.000E+00 0.000E+00    1      123        0        0
    123  6.250E+01 0.000E+00 0.000E+00 0.000E+00 0.000E+00    1      124        0        0
    124  6.250E+01 0.000E+00 0.000E+00 0.000E+00 0.000E+00    1      125        0        0
    125  6.250E+01 0.000E+00 0.000E+00 0.000E+00 0.000E+00    1      126        0        0
    126  6.250E+01 0.000E+00 0.000E+00 0.000E+00 0.000E+00    1      127        0        0
    127  6.250E+01 0.000E+00 0.000E+00 0.000E+00 0.000E+00    1      128        0        0
    128  6.250E+01 0.000E+00 0.000E+00 0.000E+00 0.000E+00    1      129        0        0
    129  6.250E+01 0.000E+00 0.000E+00 0.000E+00 0.000E+00    1      130        0        0
    130  6.250E+01 0.000E+00 0.000E+00 0.000E+00 0.000E+00    1      131        0        0
    131  6.250E+01 0.000E+00 0.000E+00 0.000E+00 0.000E+00    1      132        0        0
    132  6.250E+01 0.000E+00 0.000E+00 0.000E+00 0.000E+00    1      133        0        0
    133  6.250E+01 0.000E+00 0.000E+00 0.000E+00 0.000E+00    1      134        0        0
    134  6.250E+01 0.000E+00 0.000E+00 0.000E+00 0.000E+00    1      135        0        0
    135  6.250E+01 0.000E+00 0.000E+00 0.000E+00 0.000E+00    1      136        0        0
    136  6.250E+01 0.000E+00 0.000E+00 0.000E+00 0.000E+00    1      137        0        0
    137  6.250E+01 0.000E+00 0.000E+00 0.000E+00 0.000E+00    1      138        0        0
    138  6.250E+01 0.000E+00 0.000E+00 0.000E+00 0.000E+00    1      139        0        0
    139  6.250E+01 0.000E+00 0.000E+00 0.000E+00 0.000E+00    1      140        0        0
    140  6.250E+01 0.000E+00 0.000E+00 0.000E+00 0.000E+00    1      141        0        0
    141  6.250E+01 0.000E+00 0.000E+00 0.000E+00 0.000E+00    1      142        0        0
    142  6.250E+01 0.000E+00 0.000E+00 0.000E+00 0.000E+00    1      143        0        0
    143  6.250E+01 0.000E+00 0.000E+00 0.000E+00 0.000E+00    1      144        0        0
    144  6.250E+01 0.000E+00 0.000E+00 0.000E+00 0.000E+00    1      145        0        0
    145  6.250E+01 0.000E+00 0.000E+00 0.000E+00 0.000E+00    1      146        0        0
    146  6.250E+01 0.000E+00 0.000E+00 0.000E+00 0.000E+00    1      147        0        0
    147  6.250E+01 0.000E+00 0.000E+00 0.000E+00 0.000E+00    1      148        0        0
    148  6.250E+01 0.000E+00 0.000E+00 0.000E+00 0.000E+00    1      149        0        0
    149  6.250E+01 0.000E+00 0.000E+00 0.000E+00 0.000E+00    1      150        0        0
    150  6.250E+01 0.000E+00 0.000E+00 0.000E+00 0.000E+00    1      151        0        0
    151  6.250E+01 0.000E+00 0.000E+00 0.000E+00 0.000E+00    1      152        0        0
    152  6.250E+01 0.000E+00 0.000E+00 0.000E+00 0.000E+00    1      153        0        0
    153  6.250E+01 0.000E+00 0.000E+00 0.000E+00 0.000E+00    1      154        0        0
    154  6.250E+01 0.000E+00 0.000E+00 0.000E+00 0.000E+00    1      155        0        0
    155  6.250E+01 0.000E+00 0.000E+00 0.000E+00 0.000E+00    1      156        0        0
    156  6.250E+01 0.000E+00 0.000E+00 0.000E+00 0.000E+00    1      157        0        0
    157  6.250E+01 0.000E+00 0.000E+00 0.000E+00 0.000E+00    1      158        0        0
    158  6.250E+01 0.000E+00 0.000E+00 0.000E+00 0.000E+00    1      159        0        0
    159  6.250E+01 0.000E+00 0.000E+00 0.000E+00 0.000E+00    1      160        0        0
    160  6.250E+01 0.000E+00 0.000E+00 0.000E+00 0.000E+00    1      161        0        0


         STREAMBED PROPERTIES AND STREAM DIMENSIONS

 SEGMENT     WIDTH OF STREAM     DEPTH OF STREAM    STREAM ROUGHNESS
    No.     UPPER     LOWER     UPPER     LOWER     CHANNEL      BANK

     1    5.000E+00 5.000E+00                      1.000E-01
     2    5.000E+00 5.000E+00                      1.000E-01
     3    5.000E+00 5.000E+00                      1.000E-01
     4    5.000E+00 5.000E+00                      1.000E-01
     5    5.000E+00 5.000E+00                      1.000E-01
     6    5.000E+00 5.000E+00                      1.000E-01
     7    5.000E+00 5.000E+00                      1.000E-01
     8    5.000E+00 5.000E+00                      1.000E-01
     9    5.000E+00 5.000E+00                      1.000E-01
    10    5.000E+00 5.000E+00                      1.000E-01
    11    5.000E+00 5.000E+00                      1.000E-01
    12    5.000E+00 5.000E+00                      1.000E-01
    13    5.000E+00 5.000E+00                      1.000E-01
    14    5.000E+00 5.000E+00                      1.000E-01
    15    5.000E+00 5.000E+00                      1.000E-01
    16    5.000E+00 5.000E+00                      1.000E-01
    17    5.000E+00 5.000E+00                      1.000E-01
    18    5.000E+00 5.000E+00                      1.000E-01
    19    5.000E+00 5.000E+00                      1.000E-01
    20    5.000E+00 5.000E+00                      1.000E-01
    21    5.000E+00 5.000E+00                      1.000E-01
    22    5.000E+00 5.000E+00                      1.000E-01
    23    5.000E+00 5.000E+00                      1.000E-01
    24    5.000E+00 5.000E+00                      1.000E-01
    25    5.000E+00 5.000E+00                      1.000E-01
    26    5.000E+00 5.000E+00                      1.000E-01
    27    5.000E+00 5.000E+00                      1.000E-01
    28    5.000E+00 5.000E+00                      1.000E-01
    29    5.000E+00 5.000E+00                      1.000E-01
    30    5.000E+00 5.000E+00                      1.000E-01
    31    5.000E+00 5.000E+00                      1.000E-01
    32    5.000E+00 5.000E+00                      1.000E-01
    33    5.000E+00 5.000E+00                      1.000E-01
    34    5.000E+00 5.000E+00                      1.000E-01
    35    5.000E+00 5.000E+00                      1.000E-01
    36    5.000E+00 5.000E+00                      1.000E-01
    37    5.000E+00 5.000E+00                      1.000E-01
    38    5.000E+00 5.000E+00                      1.000E-01
    39    5.000E+00 5.000E+00                      1.000E-01
    40    5.000E+00 5.000E+00                      1.000E-01
    41    5.000E+00 5.000E+00                      1.000E-01
    42    5.000E+00 5.000E+00                      1.000E-01
    43    5.000E+00 5.000E+00                      1.000E-01
    44    5.000E+00 5.000E+00                      1.000E-01
    45    5.000E+00 5.000E+00                      1.000E-01
    46    5.000E+00 5.000E+00                      1.000E-01
    47    5.000E+00 5.000E+00                      1.000E-01
    48    5.000E+00 5.000E+00                      1.000E-01
    49    5.000E+00 5.000E+00                      1.000E-01
    50    5.000E+00 5.000E+00                      1.000E-01
    51    5.000E+00 5.000E+00                      1.000E-01
    52    5.000E+00 5.000E+00                      1.000E-01
    53    5.000E+00 5.000E+00                      1.000E-01
    54    5.000E+00 5.000E+00                      1.000E-01
    55    5.000E+00 5.000E+00                      1.000E-01
    56    5.000E+00 5.000E+00                      1.000E-01
    57    5.000E+00 5.000E+00                      1.000E-01
    58    5.000E+00 5.000E+00                      1.000E-01
    59    5.000E+00 5.000E+00                      1.000E-01
    60    5.000E+00 5.000E+00                      1.000E-01
    61    5.000E+00 5.000E+00                      1.000E-01
    62    5.000E+00 5.000E+00                      1.000E-01
    63    5.000E+00 5.000E+00                      1.000E-01
    64    5.000E+00 5.000E+00                      1.000E-01
    65    5.000E+00 5.000E+00                      1.000E-01
    66    5.000E+00 5.000E+00                      1.000E-01
    67    5.000E+00 5.000E+00                      1.000E-01
    68    5.000E+00 5.000E+00                      1.000E-01
    69    5.000E+00 5.000E+00                      1.000E-01
    70    5.000E+00 5.000E+00                      1.000E-01
    71    5.000E+00 5.000E+00                      1.000E-01
    72    5.000E+00 5.000E+00                      1.000E-01
    73    5.000E+00 5.000E+00                      1.000E-01
    74    5.000E+00 5.000E+00                      1.000E-01
    75    5.000E+00 5.000E+00                      1.000E-01
    76    5.000E+00 5.000E+00                      1.000E-01
    77    5.000E+00 5.000E+00                      1.000E-01
    78    5.000E+00 5.000E+00                      1.000E-01
    79    5.000E+00 5.000E+00                      1.000E-01
    80    5.000E+00 5.000E+00                      1.000E-01
    81    5.000E+00 5.000E+00                      1.000E-01
    82    5.000E+00 5.000E+00                      1.000E-01
    83    5.000E+00 5.000E+00                      1.000E-01
    84    5.000E+00 5.000E+00                      1.000E-01
    85    5.000E+00 5.000E+00                      1.000E-01
    86    5.000E+00 5.000E+00                      1.000E-01
    87    5.000E+00 5.000E+00                      1.000E-01
    88    5.000E+00 5.000E+00                      1.000E-01
    89    5.000E+00 5.000E+00                      1.000E-01
    90    5.000E+00 5.000E+00                      1.000E-01
    91    5.000E+00 5.000E+00                      1.000E-01
    92    5.000E+00 5.000E+00                      1.000E-01
    93    5.000E+00 5.000E+00                      1.000E-01
    94    5.000E+00 5.000E+00                      1.000E-01
    95    5.000E+00 5.000E+00                      1.000E-01
    96    5.000E+00 5.000E+00                      1.000E-01
    97    5.000E+00 5.000E+00                      1.000E-01
    98    5.000E+00 5.000E+00                      1.000E-01
    99    5.000E+00 5.000E+00                      1.000E-01
   100    5.000E+00 5.000E+00                      1.000E-01
   101    5.000E+00 5.000E+00                      1.000E-01
   102    5.000E+00 5.000E+00                      1.000E-01
   103    5.000E+00 5.000E+00                      1.000E-01
   104    5.000E+00 5.000E+00                      1.000E-01
   105    5.000E+00 5.000E+00                      1.000E-01
   106    5.000E+00 5.000E+00                      1.000E-01
   107    5.000E+00 5.000E+00                      1.000E-01
   108    5.000E+00 5.000E+00                      1.000E-01
   109    5.000E+00 5.000E+00                      1.000E-01
   110    5.000E+00 5.000E+00                      1.000E-01
   111    5.000E+00 5.000E+00                      1.000E-01
   112    5.000E+00 5.000E+00                      1.000E-01
   113    5.000E+00 5.000E+00                      1.000E-01
   114    5.000E+00 5.000E+00                      1.000E-01
   115    5.000E+00 5.000E+00                      1.000E-01
   116    5.000E+00 5.000E+00                      1.000E-01
   117    5.000E+00 5.000E+00                      1.000E-01
   118    5.000E+00 5.000E+00                      1.000E-01
   119    5.000E+00 5.000E+00                      1.000E-01
   120    5.000E+00 5.000E+00                      1.000E-01
   121    5.000E+00 5.000E+00                      1.000E-01
   122    5.000E+00 5.000E+00                      1.000E-01
   123    5.000E+00 5.000E+00                      1.000E-01
   124    5.000E+00 5.000E+00                      1.000E-01
   125    5.000E+00 5.000E+00                      1.000E-01
   126    5.000E+00 5.000E+00                      1.000E-01
   127    5.000E+00 5.000E+00                      1.000E-01
   128    5.000E+00 5.000E+00                      1.000E-01
   129    5.000E+00 5.000E+00                      1.000E-01
   130    5.000E+00 5.000E+00                      1.000E-01
   131    5.000E+00 5.000E+00                      1.000E-01
   132    5.000E+00 5.000E+00                      1.000E-01
   133    5.000E+00 5.000E+00                      1.000E-01
   134    5.000E+00 5.000E+00                      1.000E-01
   135    5.000E+00 5.000E+00                      1.000E-01
   136    5.000E+00 5.000E+00                      1.000E-01
   137    5.000E+00 5.000E+00                      1.000E-01
   138    5.000E+00 5.000E+00                      1.000E-01
   139    5.000E+00 5.000E+00                      1.000E-01
   140    5.000E+00 5.000E+00                      1.000E-01
   141    5.000E+00 5.000E+00                      1.000E-01
   142    5.000E+00 5.000E+00                      1.000E-01
   143    5.000E+00 5.000E+00                      1.000E-01
   144    5.000E+00 5.000E+00                      1.000E-01
   145    5.000E+00 5.000E+00                      1.000E-01
   146    5.000E+00 5.000E+00                      1.000E-01
   147    5.000E+00 5.000E+00                      1.000E-01
   148    5.000E+00 5.000E+00                      1.000E-01
   149    5.000E+00 5.000E+00                      1.000E-01
   150    5.000E+00 5.000E+00                      1.000E-01
   151    5.000E+00 5.000E+00                      1.000E-01
   152    5.000E+00 5.000E+00                      1.000E-01
   153    5.000E+00 5.000E+00                      1.000E-01
   154    5.000E+00 5.000E+00                      1.000E-01
   155    5.000E+00 5.000E+00                      1.000E-01
   156    5.000E+00 5.000E+00                      1.000E-01
   157    5.000E+00 5.000E+00                      1.000E-01
   158    5.000E+00 5.000E+00                      1.000E-01
   159    5.000E+00 5.000E+00                      1.000E-01
   160    5.000E+00 5.000E+00                      1.000E-01



 
 SOLVING FOR HEAD 


 OUTER ITERATION SUMMARY
 -----------------------
 BT: Backtracking; LA: Linear Acceleration; UR: Under-relaxation

    Outer-Iteration  Inner-Iteration    Maximum Head Change  Maximum Head Change
        Number           Count               Value              Location
LA         1                8               0.45358                  4092           GWF-node number
LA         2                5               0.95687E-02              1388           GWF-node number
LA         3                2               0.34015E-03              1425           GWF-node number
LA         4                1               0.30554E-04              2796           GWF-node number


     4 CALLS TO SPARSE MATRIX SOLVER PACKAGE  IN FLOW TIME STEP   1 STRESS PERIOD   2

 TOTAL OF       4OUTER ITERATIONS
  MAXIMUM CHANGE FOR EACH ITERATION:
   MAX. CHANGE        NODE  MAX. CHANGE        NODE  MAX. CHANGE        NODE  MAX. CHANGE        NODE  MAX. CHANGE        NODE
 ------------------------------------------------------------------------------------------------------------------------------------
   0.45358    ,       4092  0.95687E-02,       1388  0.34015E-03,       1425  0.30554E-04,       2796

 OUTPUT CONTROL FOR STRESS PERIOD        2   TIME STEP        1
    SAVE HEAD FOR ALL LAYERS
    SAVE BUDGET
 UBDSV1U SAVING "         STORAGE" ON UNIT  50 AT TIME STEP      1, STRESS PERIOD      2
 UBDSV2U SAVING "   CONSTANT HEAD" ON UNIT  50 AT TIME STEP      1, STRESS PERIOD      2
 UBDSV1U SAVING "   FLOW JA FACE " ON UNIT  50 AT TIME STEP      1, STRESS PERIOD      2
 UBDSV4U SAVING "           WELLS" ON UNIT  50 AT TIME STEP      1, STRESS PERIOD      2
 UBDSV4U SAVING " HEAD DEP BOUNDS" ON UNIT  50 AT TIME STEP      1, STRESS PERIOD      2
 UBDSV3U SAVING "        RECHARGE" ON UNIT  50 AT TIME STEP      1, STRESS PERIOD      2
 UBDSV2U SAVING "  STREAM LEAKAGE" ON UNIT  50 AT TIME STEP      1, STRESS PERIOD      2




 HEAD WILL BE SAVED ON UNIT   51 AT END OF TIME STEP   1, STRESS PERIOD    2
1
  VOLUMETRIC BUDGET FOR ENTIRE MODEL AT END OF TIME STEP       1 IN STRESS PERIOD       2
  ---------------------------------------------------------------------------------------

     CUMULATIVE VOLUMES      L**3       RATES FOR THIS TIME STEP      L**3/T
     ------------------                 ------------------------

           IN:                                      IN:
           ---                                      ---
             STORAGE =           0.0000               STORAGE =           0.0000
       CONSTANT HEAD =           0.0000         CONSTANT HEAD =           0.0000
               WELLS =           0.0000                 WELLS =           0.0000
     HEAD DEP BOUNDS =        8379.4687       HEAD DEP BOUNDS =         258.2275
            RECHARGE =      126734.4131              RECHARGE =        4004.6985
      STREAM LEAKAGE =        1573.6169        STREAM LEAKAGE =          48.5214

            TOTAL IN =      136687.4987              TOTAL IN =        4311.4474

          OUT:                                     OUT:
          ----                                     ----
             STORAGE =       76156.8927               STORAGE =        2456.6740
       CONSTANT HEAD =           0.0000         CONSTANT HEAD =           0.0000
               WELLS =       27248.9977                 WELLS =         806.4193
     HEAD DEP BOUNDS =       20980.1160       HEAD DEP BOUNDS =         661.1511
            RECHARGE =           0.0000              RECHARGE =           0.0000
      STREAM LEAKAGE =       12301.0940        STREAM LEAKAGE =         387.1902

           TOTAL OUT =      136687.1004             TOTAL OUT =        4311.4345

            IN - OUT =           0.3983              IN - OUT =       1.2855E-02

 PERCENT DISCREPANCY =           0.00     PERCENT DISCREPANCY =           0.00






          TIME SUMMARY AT END OF TIME STEP         1 IN STRESS PERIOD         2
                    SECONDS     MINUTES      HOURS       DAYS        YEARS
                    -----------------------------------------------------------
   TIME STEP LENGTH 2.67840E+06  44640.      744.00      31.000     8.48734E-02
 STRESS PERIOD TIME 2.67840E+06  44640.      744.00      31.000     8.48734E-02
         TOTAL TIME 2.76480E+06  46080.      768.00      32.000     8.76112E-02
1
1
                            STRESS PERIOD NO.    3, LENGTH =   29.00000    
                            -----------------------------------------------

                              NUMBER OF TIME STEPS =     1

                               MULTIPLIER FOR DELT =     1.000

                            INITIAL TIME STEP SIZE =   29.00000    

 WEL -- WELL PACKAGE, VERSION 7, 5/2/2005 INPUT READ FROM UNIT   20

 WELL NO.      NODE       STRESS FACTOR         
 -----------------------------------------------
      1        3324      -149.1    
      2        3409      -149.1    
      3        3737      -149.1    
      4        3971      -149.1    
      5        4092      -149.1    
      6        4297      -149.1    

      6 WELLS

 GHB -- GENERAL-HEAD BOUNDARY PACKAGE, VERSION 7, 5/2/2005
         INPUT READ FROM UNIT   30

 BOUND NO.     NODE         STAGE         CONDUCTANCE         
 -------------------------------------------------------------
      1        1473       33.50           70.00    
      2        1474       33.50           70.00    
      3        1475       33.50           70.00    
      4        1476       33.50           70.00    
      5        1477       33.50           70.00    
      6        1478       33.50           70.00    
      7        1479       33.50           70.00    
      8        1480       33.50           70.00    
      9        1481       33.50           70.00    
     10        1482       33.50           70.00    
     11        2972       33.50           70.00    
     12        2973       33.50           70.00    
     13        2974       33.50           70.00    
     14        2975       33.50           70.00    
     15        2976       33.50           70.00    
     16        2977       33.50           70.00    
     17        2978       33.50           70.00    
     18        2979       33.50           70.00    
     19        2980       33.50           70.00    
     20        2981       33.50           70.00    
     21        4471       33.50           70.00    
     22        4472       33.50           70.00    
     23        4473       33.50           70.00    
     24        4474       33.50           70.00    
     25        4475       33.50           70.00    
     26        4476       33.50           70.00    
     27        4477       33.50           70.00    
     28        4478       33.50           70.00    
     29        4479       33.50           70.00    
     30        4480       33.50           70.00    
     31        2999       35.50           70.00    
     32        3000       35.50           70.00    
     33        3001       35.50           70.00    
     34        3002       35.50           70.00    
     35        3003       35.50           70.00    
     36        3004       35.50           70.00    
     37        3005       35.50           70.00    
     38        3006       35.50           70.00    
     39        3007       35.50           70.00    
     40        3008       35.50           70.00    
     41        3009       35.50           70.00    
     42        3010       35.50           70.00    
     43        3011       35.50           70.00    
     44        3012       35.50           70.00    
     45        3013       35.50           70.00    
     46        3023       35.50           4.375    
     47        3027       35.50           17.50    
     48        3028       35.50           70.00    
     49        3029       35.50           70.00    
     50        3030       35.50           70.00    

     50 GHB CELLS

 RCH -- RECHARGE PACKAGE, VERSION 7, 5/2/2005 INPUT READ FROM UNIT   31



                           RECHARGE
 READING ON UNIT   31 WITH FORMAT: (1499E15.6)         



 CLASSIFICATION & COUNT OF STREAM SEGMENTS BASED ON SOURCE OF INFLOW:

                HEADWATER     DIVERSION     RECEIVES TRIBUTARY FLOW
                ---------     ---------     -----------------------
                     1              0             159



                    INPUT DATA FOR EACH STREAM SEGMENT
 ---------------------------------------------------------------------------------------------

 SEGMENT    SEG.     INFLOW   OVERLAND   STREAM    STREAM   ICALC  OUTFLOW  DIVERSION PRIORITY
    NO.    LENGTH     RATE     RUNOFF      ET       PPT.    METH.  TO SEG.  FROM SEG.    NO.

      1  6.250E+01 1.650E+04 0.000E+00 0.000E+00 0.000E+00    1        2        0        0
      2  6.250E+01 0.000E+00 0.000E+00 0.000E+00 0.000E+00    1        3        0        0
      3  6.250E+01 0.000E+00 0.000E+00 0.000E+00 0.000E+00    1        4        0        0
      4  6.250E+01 0.000E+00 0.000E+00 0.000E+00 0.000E+00    1        5        0        0
      5  6.250E+01 0.000E+00 0.000E+00 0.000E+00 0.000E+00    1        6        0        0
      6  6.250E+01 0.000E+00 0.000E+00 0.000E+00 0.000E+00    1        7        0        0
      7  6.250E+01 0.000E+00 0.000E+00 0.000E+00 0.000E+00    1        8        0        0
      8  6.250E+01 0.000E+00 0.000E+00 0.000E+00 0.000E+00    1        9        0        0
      9  6.250E+01 0.000E+00 0.000E+00 0.000E+00 0.000E+00    1       10        0        0
     10  6.250E+01 0.000E+00 0.000E+00 0.000E+00 0.000E+00    1       11        0        0
     11  6.250E+01 0.000E+00 0.000E+00 0.000E+00 0.000E+00    1       12        0        0
     12  6.250E+01 0.000E+00 0.000E+00 0.000E+00 0.000E+00    1       13        0        0
     13  6.250E+01 0.000E+00 0.000E+00 0.000E+00 0.000E+00    1       14        0        0
     14  6.250E+01 0.000E+00 0.000E+00 0.000E+00 0.000E+00    1       15        0        0
     15  6.250E+01 0.000E+00 0.000E+00 0.000E+00 0.000E+00    1       16        0        0
     16  6.250E+01 0.000E+00 0.000E+00 0.000E+00 0.000E+00    1       17        0        0
     17  6.250E+01 0.000E+00 0.000E+00 0.000E+00 0.000E+00    1       18        0        0
     18  6.250E+01 0.000E+00 0.000E+00 0.000E+00 0.000E+00    1       19        0        0
     19  6.250E+01 0.000E+00 0.000E+00 0.000E+00 0.000E+00    1       20        0        0
     20  6.250E+01 0.000E+00 0.000E+00 0.000E+00 0.000E+00    1       21        0        0
     21  6.250E+01 0.000E+00 0.000E+00 0.000E+00 0.000E+00    1       22        0        0
     22  6.250E+01 0.000E+00 0.000E+00 0.000E+00 0.000E+00    1       23        0        0
     23  6.250E+01 0.000E+00 0.000E+00 0.000E+00 0.000E+00    1       24        0        0
     24  6.250E+01 0.000E+00 0.000E+00 0.000E+00 0.000E+00    1       25        0        0
     25  6.250E+01 0.000E+00 0.000E+00 0.000E+00 0.000E+00    1       26        0        0
     26  6.250E+01 0.000E+00 0.000E+00 0.000E+00 0.000E+00    1       27        0        0
     27  6.250E+01 0.000E+00 0.000E+00 0.000E+00 0.000E+00    1       28        0        0
     28  6.250E+01 0.000E+00 0.000E+00 0.000E+00 0.000E+00    1       29        0        0
     29  6.250E+01 0.000E+00 0.000E+00 0.000E+00 0.000E+00    1       30        0        0
     30  6.250E+01 0.000E+00 0.000E+00 0.000E+00 0.000E+00    1       31        0        0
     31  6.250E+01 0.000E+00 0.000E+00 0.000E+00 0.000E+00    1       32        0        0
     32  6.250E+01 0.000E+00 0.000E+00 0.000E+00 0.000E+00    1       33        0        0
     33  6.250E+01 0.000E+00 0.000E+00 0.000E+00 0.000E+00    1       34        0        0
     34  6.250E+01 0.000E+00 0.000E+00 0.000E+00 0.000E+00    1       35        0        0
     35  6.250E+01 0.000E+00 0.000E+00 0.000E+00 0.000E+00    1       36        0        0
     36  6.250E+01 0.000E+00 0.000E+00 0.000E+00 0.000E+00    1       37        0        0
     37  6.250E+01 0.000E+00 0.000E+00 0.000E+00 0.000E+00    1       38        0        0
     38  6.250E+01 0.000E+00 0.000E+00 0.000E+00 0.000E+00    1       39        0        0
     39  6.250E+01 0.000E+00 0.000E+00 0.000E+00 0.000E+00    1       40        0        0
     40  6.250E+01 0.000E+00 0.000E+00 0.000E+00 0.000E+00    1       41        0        0
     41  6.250E+01 0.000E+00 0.000E+00 0.000E+00 0.000E+00    1       42        0        0
     42  6.250E+01 0.000E+00 0.000E+00 0.000E+00 0.000E+00    1       43        0        0
     43  6.250E+01 0.000E+00 0.000E+00 0.000E+00 0.000E+00    1       44        0        0
     44  6.250E+01 0.000E+00 0.000E+00 0.000E+00 0.000E+00    1       45        0        0
     45  6.250E+01 0.000E+00 0.000E+00 0.000E+00 0.000E+00    1       46        0        0
     46  6.250E+01 0.000E+00 0.000E+00 0.000E+00 0.000E+00    1       47        0        0
     47  6.250E+01 0.000E+00 0.000E+00 0.000E+00 0.000E+00    1       48        0        0
     48  6.250E+01 0.000E+00 0.000E+00 0.000E+00 0.000E+00    1       49        0        0
     49  6.250E+01 0.000E+00 0.000E+00 0.000E+00 0.000E+00    1       50        0        0
     50  6.250E+01 0.000E+00 0.000E+00 0.000E+00 0.000E+00    1       51        0        0
     51  6.250E+01 0.000E+00 0.000E+00 0.000E+00 0.000E+00    1       52        0        0
     52  6.250E+01 0.000E+00 0.000E+00 0.000E+00 0.000E+00    1       53        0        0
     53  6.250E+01 0.000E+00 0.000E+00 0.000E+00 0.000E+00    1       54        0        0
     54  6.250E+01 0.000E+00 0.000E+00 0.000E+00 0.000E+00    1       55        0        0
     55  6.250E+01 0.000E+00 0.000E+00 0.000E+00 0.000E+00    1       56        0        0
     56  6.250E+01 0.000E+00 0.000E+00 0.000E+00 0.000E+00    1       57        0        0
     57  6.250E+01 0.000E+00 0.000E+00 0.000E+00 0.000E+00    1       58        0        0
     58  6.250E+01 0.000E+00 0.000E+00 0.000E+00 0.000E+00    1       59        0        0
     59  6.250E+01 0.000E+00 0.000E+00 0.000E+00 0.000E+00    1       60        0        0
     60  6.250E+01 0.000E+00 0.000E+00 0.000E+00 0.000E+00    1       61        0        0
     61  6.250E+01 0.000E+00 0.000E+00 0.000E+00 0.000E+00    1       62        0        0
     62  6.250E+01 0.000E+00 0.000E+00 0.000E+00 0.000E+00    1       63        0        0
     63  6.250E+01 0.000E+00 0.000E+00 0.000E+00 0.000E+00    1       64        0        0
     64  6.250E+01 0.000E+00 0.000E+00 0.000E+00 0.000E+00    1       65        0        0
     65  6.250E+01 0.000E+00 0.000E+00 0.000E+00 0.000E+00    1       66        0        0
     66  6.250E+01 0.000E+00 0.000E+00 0.000E+00 0.000E+00    1       67        0        0
     67  6.250E+01 0.000E+00 0.000E+00 0.000E+00 0.000E+00    1       68        0        0
     68  6.250E+01 0.000E+00 0.000E+00 0.000E+00 0.000E+00    1       69        0        0
     69  6.250E+01 0.000E+00 0.000E+00 0.000E+00 0.000E+00    1       70        0        0
     70  6.250E+01 0.000E+00 0.000E+00 0.000E+00 0.000E+00    1       71        0        0
     71  6.250E+01 0.000E+00 0.000E+00 0.000E+00 0.000E+00    1       72        0        0
     72  6.250E+01 0.000E+00 0.000E+00 0.000E+00 0.000E+00    1       73        0        0
     73  6.250E+01 0.000E+00 0.000E+00 0.000E+00 0.000E+00    1       74        0        0
     74  6.250E+01 0.000E+00 0.000E+00 0.000E+00 0.000E+00    1       75        0        0
     75  6.250E+01 0.000E+00 0.000E+00 0.000E+00 0.000E+00    1       76        0        0
     76  6.250E+01 0.000E+00 0.000E+00 0.000E+00 0.000E+00    1       77        0        0
     77  6.250E+01 0.000E+00 0.000E+00 0.000E+00 0.000E+00    1       78        0        0
     78  6.250E+01 0.000E+00 0.000E+00 0.000E+00 0.000E+00    1       79        0        0
     79  6.250E+01 0.000E+00 0.000E+00 0.000E+00 0.000E+00    1       80        0        0
     80  6.250E+01 0.000E+00 0.000E+00 0.000E+00 0.000E+00    1       81        0        0
     81  6.250E+01 0.000E+00 0.000E+00 0.000E+00 0.000E+00    1       82        0        0
     82  6.250E+01 0.000E+00 0.000E+00 0.000E+00 0.000E+00    1       83        0        0
     83  6.250E+01 0.000E+00 0.000E+00 0.000E+00 0.000E+00    1       84        0        0
     84  6.250E+01 0.000E+00 0.000E+00 0.000E+00 0.000E+00    1       85        0        0
     85  6.250E+01 0.000E+00 0.000E+00 0.000E+00 0.000E+00    1       86        0        0
     86  6.250E+01 0.000E+00 0.000E+00 0.000E+00 0.000E+00    1       87        0        0
     87  6.250E+01 0.000E+00 0.000E+00 0.000E+00 0.000E+00    1       88        0        0
     88  6.250E+01 0.000E+00 0.000E+00 0.000E+00 0.000E+00    1       89        0        0
     89  6.250E+01 0.000E+00 0.000E+00 0.000E+00 0.000E+00    1       90        0        0
     90  6.250E+01 0.000E+00 0.000E+00 0.000E+00 0.000E+00    1       91        0        0
     91  6.250E+01 0.000E+00 0.000E+00 0.000E+00 0.000E+00    1       92        0        0
     92  6.250E+01 0.000E+00 0.000E+00 0.000E+00 0.000E+00    1       93        0        0
     93  6.250E+01 0.000E+00 0.000E+00 0.000E+00 0.000E+00    1       94        0        0
     94  6.250E+01 0.000E+00 0.000E+00 0.000E+00 0.000E+00    1       95        0        0
     95  6.250E+01 0.000E+00 0.000E+00 0.000E+00 0.000E+00    1       96        0        0
     96  6.250E+01 0.000E+00 0.000E+00 0.000E+00 0.000E+00    1       97        0        0
     97  6.250E+01 0.000E+00 0.000E+00 0.000E+00 0.000E+00    1       98        0        0
     98  6.250E+01 0.000E+00 0.000E+00 0.000E+00 0.000E+00    1       99        0        0
     99  6.250E+01 0.000E+00 0.000E+00 0.000E+00 0.000E+00    1      100        0        0
    100  6.250E+01 0.000E+00 0.000E+00 0.000E+00 0.000E+00    1      101        0        0
    101  6.250E+01 0.000E+00 0.000E+00 0.000E+00 0.000E+00    1      102        0        0
    102  6.250E+01 0.000E+00 0.000E+00 0.000E+00 0.000E+00    1      103        0        0
    103  6.250E+01 0.000E+00 0.000E+00 0.000E+00 0.000E+00    1      104        0        0
    104  6.250E+01 0.000E+00 0.000E+00 0.000E+00 0.000E+00    1      105        0        0
    105  6.250E+01 0.000E+00 0.000E+00 0.000E+00 0.000E+00    1      106        0        0
    106  6.250E+01 0.000E+00 0.000E+00 0.000E+00 0.000E+00    1      107        0        0
    107  6.250E+01 0.000E+00 0.000E+00 0.000E+00 0.000E+00    1      108        0        0
    108  6.250E+01 0.000E+00 0.000E+00 0.000E+00 0.000E+00    1      109        0        0
    109  6.250E+01 0.000E+00 0.000E+00 0.000E+00 0.000E+00    1      110        0        0
    110  6.250E+01 0.000E+00 0.000E+00 0.000E+00 0.000E+00    1      111        0        0
    111  6.250E+01 0.000E+00 0.000E+00 0.000E+00 0.000E+00    1      112        0        0
    112  6.250E+01 0.000E+00 0.000E+00 0.000E+00 0.000E+00    1      113        0        0
    113  6.250E+01 0.000E+00 0.000E+00 0.000E+00 0.000E+00    1      114        0        0
    114  6.250E+01 0.000E+00 0.000E+00 0.000E+00 0.000E+00    1      115        0        0
    115  6.250E+01 0.000E+00 0.000E+00 0.000E+00 0.000E+00    1      116        0        0
    116  6.250E+01 0.000E+00 0.000E+00 0.000E+00 0.000E+00    1      117        0        0
    117  6.250E+01 0.000E+00 0.000E+00 0.000E+00 0.000E+00    1      118        0        0
    118  6.250E+01 0.000E+00 0.000E+00 0.000E+00 0.000E+00    1      119        0        0
    119  6.250E+01 0.000E+00 0.000E+00 0.000E+00 0.000E+00    1      120        0        0
    120  6.250E+01 0.000E+00 0.000E+00 0.000E+00 0.000E+00    1      121        0        0
    121  6.250E+01 0.000E+00 0.000E+00 0.000E+00 0.000E+00    1      122        0        0
    122  6.250E+01 0.000E+00 0.000E+00 0.000E+00 0.000E+00    1      123        0        0
    123  6.250E+01 0.000E+00 0.000E+00 0.000E+00 0.000E+00    1      124        0        0
    124  6.250E+01 0.000E+00 0.000E+00 0.000E+00 0.000E+00    1      125        0        0
    125  6.250E+01 0.000E+00 0.000E+00 0.000E+00 0.000E+00    1      126        0        0
    126  6.250E+01 0.000E+00 0.000E+00 0.000E+00 0.000E+00    1      127        0        0
    127  6.250E+01 0.000E+00 0.000E+00 0.000E+00 0.000E+00    1      128        0        0
    128  6.250E+01 0.000E+00 0.000E+00 0.000E+00 0.000E+00    1      129        0        0
    129  6.250E+01 0.000E+00 0.000E+00 0.000E+00 0.000E+00    1      130        0        0
    130  6.250E+01 0.000E+00 0.000E+00 0.000E+00 0.000E+00    1      131        0        0
    131  6.250E+01 0.000E+00 0.000E+00 0.000E+00 0.000E+00    1      132        0        0
    132  6.250E+01 0.000E+00 0.000E+00 0.000E+00 0.000E+00    1      133        0        0
    133  6.250E+01 0.000E+00 0.000E+00 0.000E+00 0.000E+00    1      134        0        0
    134  6.250E+01 0.000E+00 0.000E+00 0.000E+00 0.000E+00    1      135        0        0
    135  6.250E+01 0.000E+00 0.000E+00 0.000E+00 0.000E+00    1      136        0        0
    136  6.250E+01 0.000E+00 0.000E+00 0.000E+00 0.000E+00    1      137        0        0
    137  6.250E+01 0.000E+00 0.000E+00 0.000E+00 0.000E+00    1      138        0        0
    138  6.250E+01 0.000E+00 0.000E+00 0.000E+00 0.000E+00    1      139        0        0
    139  6.250E+01 0.000E+00 0.000E+00 0.000E+00 0.000E+00    1      140        0        0
    140  6.250E+01 0.000E+00 0.000E+00 0.000E+00 0.000E+00    1      141        0        0
    141  6.250E+01 0.000E+00 0.000E+00 0.000E+00 0.000E+00    1      142        0        0
    142  6.250E+01 0.000E+00 0.000E+00 0.000E+00 0.000E+00    1      143        0        0
    143  6.250E+01 0.000E+00 0.000E+00 0.000E+00 0.000E+00    1      144        0        0
    144  6.250E+01 0.000E+00 0.000E+00 0.000E+00 0.000E+00    1      145        0        0
    145  6.250E+01 0.000E+00 0.000E+00 0.000E+00 0.000E+00    1      146        0        0
    146  6.250E+01 0.000E+00 0.000E+00 0.000E+00 0.000E+00    1      147        0        0
    147  6.250E+01 0.000E+00 0.000E+00 0.000E+00 0.000E+00    1      148        0        0
    148  6.250E+01 0.000E+00 0.000E+00 0.000E+00 0.000E+00    1      149        0        0
    149  6.250E+01 0.000E+00 0.000E+00 0.000E+00 0.000E+00    1      150        0        0
    150  6.250E+01 0.000E+00 0.000E+00 0.000E+00 0.000E+00    1      151        0        0
    151  6.250E+01 0.000E+00 0.000E+00 0.000E+00 0.000E+00    1      152        0        0
    152  6.250E+01 0.000E+00 0.000E+00 0.000E+00 0.000E+00    1      153        0        0
    153  6.250E+01 0.000E+00 0.000E+00 0.000E+00 0.000E+00    1      154        0        0
    154  6.250E+01 0.000E+00 0.000E+00 0.000E+00 0.000E+00    1      155        0        0
    155  6.250E+01 0.000E+00 0.000E+00 0.000E+00 0.000E+00    1      156        0        0
    156  6.250E+01 0.000E+00 0.000E+00 0.000E+00 0.000E+00    1      157        0        0
    157  6.250E+01 0.000E+00 0.000E+00 0.000E+00 0.000E+00    1      158        0        0
    158  6.250E+01 0.000E+00 0.000E+00 0.000E+00 0.000E+00    1      159        0        0
    159  6.250E+01 0.000E+00 0.000E+00 0.000E+00 0.000E+00    1      160        0        0
    160  6.250E+01 0.000E+00 0.000E+00 0.000E+00 0.000E+00    1      161        0        0


         STREAMBED PROPERTIES AND STREAM DIMENSIONS

 SEGMENT     WIDTH OF STREAM     DEPTH OF STREAM    STREAM ROUGHNESS
    No.     UPPER     LOWER     UPPER     LOWER     CHANNEL      BANK

     1    5.000E+00 5.000E+00                      1.000E-01
     2    5.000E+00 5.000E+00                      1.000E-01
     3    5.000E+00 5.000E+00                      1.000E-01
     4    5.000E+00 5.000E+00                      1.000E-01
     5    5.000E+00 5.000E+00                      1.000E-01
     6    5.000E+00 5.000E+00                      1.000E-01
     7    5.000E+00 5.000E+00                      1.000E-01
     8    5.000E+00 5.000E+00                      1.000E-01
     9    5.000E+00 5.000E+00                      1.000E-01
    10    5.000E+00 5.000E+00                      1.000E-01
    11    5.000E+00 5.000E+00                      1.000E-01
    12    5.000E+00 5.000E+00                      1.000E-01
    13    5.000E+00 5.000E+00                      1.000E-01
    14    5.000E+00 5.000E+00                      1.000E-01
    15    5.000E+00 5.000E+00                      1.000E-01
    16    5.000E+00 5.000E+00                      1.000E-01
    17    5.000E+00 5.000E+00                      1.000E-01
    18    5.000E+00 5.000E+00                      1.000E-01
    19    5.000E+00 5.000E+00                      1.000E-01
    20    5.000E+00 5.000E+00                      1.000E-01
    21    5.000E+00 5.000E+00                      1.000E-01
    22    5.000E+00 5.000E+00                      1.000E-01
    23    5.000E+00 5.000E+00                      1.000E-01
    24    5.000E+00 5.000E+00                      1.000E-01
    25    5.000E+00 5.000E+00                      1.000E-01
    26    5.000E+00 5.000E+00                      1.000E-01
    27    5.000E+00 5.000E+00                      1.000E-01
    28    5.000E+00 5.000E+00                      1.000E-01
    29    5.000E+00 5.000E+00                      1.000E-01
    30    5.000E+00 5.000E+00                      1.000E-01
    31    5.000E+00 5.000E+00                      1.000E-01
    32    5.000E+00 5.000E+00                      1.000E-01
    33    5.000E+00 5.000E+00                      1.000E-01
    34    5.000E+00 5.000E+00                      1.000E-01
    35    5.000E+00 5.000E+00                      1.000E-01
    36    5.000E+00 5.000E+00                      1.000E-01
    37    5.000E+00 5.000E+00                      1.000E-01
    38    5.000E+00 5.000E+00                      1.000E-01
    39    5.000E+00 5.000E+00                      1.000E-01
    40    5.000E+00 5.000E+00                      1.000E-01
    41    5.000E+00 5.000E+00                      1.000E-01
    42    5.000E+00 5.000E+00                      1.000E-01
    43    5.000E+00 5.000E+00                      1.000E-01
    44    5.000E+00 5.000E+00                      1.000E-01
    45    5.000E+00 5.000E+00                      1.000E-01
    46    5.000E+00 5.000E+00                      1.000E-01
    47    5.000E+00 5.000E+00                      1.000E-01
    48    5.000E+00 5.000E+00                      1.000E-01
    49    5.000E+00 5.000E+00                      1.000E-01
    50    5.000E+00 5.000E+00                      1.000E-01
    51    5.000E+00 5.000E+00                      1.000E-01
    52    5.000E+00 5.000E+00                      1.000E-01
    53    5.000E+00 5.000E+00                      1.000E-01
    54    5.000E+00 5.000E+00                      1.000E-01
    55    5.000E+00 5.000E+00                      1.000E-01
    56    5.000E+00 5.000E+00                      1.000E-01
    57    5.000E+00 5.000E+00                      1.000E-01
    58    5.000E+00 5.000E+00                      1.000E-01
    59    5.000E+00 5.000E+00                      1.000E-01
    60    5.000E+00 5.000E+00                      1.000E-01
    61    5.000E+00 5.000E+00                      1.000E-01
    62    5.000E+00 5.000E+00                      1.000E-01
    63    5.000E+00 5.000E+00                      1.000E-01
    64    5.000E+00 5.000E+00                      1.000E-01
    65    5.000E+00 5.000E+00                      1.000E-01
    66    5.000E+00 5.000E+00                      1.000E-01
    67    5.000E+00 5.000E+00                      1.000E-01
    68    5.000E+00 5.000E+00                      1.000E-01
    69    5.000E+00 5.000E+00                      1.000E-01
    70    5.000E+00 5.000E+00                      1.000E-01
    71    5.000E+00 5.000E+00                      1.000E-01
    72    5.000E+00 5.000E+00                      1.000E-01
    73    5.000E+00 5.000E+00                      1.000E-01
    74    5.000E+00 5.000E+00                      1.000E-01
    75    5.000E+00 5.000E+00                      1.000E-01
    76    5.000E+00 5.000E+00                      1.000E-01
    77    5.000E+00 5.000E+00                      1.000E-01
    78    5.000E+00 5.000E+00                      1.000E-01
    79    5.000E+00 5.000E+00                      1.000E-01
    80    5.000E+00 5.000E+00                      1.000E-01
    81    5.000E+00 5.000E+00                      1.000E-01
    82    5.000E+00 5.000E+00                      1.000E-01
    83    5.000E+00 5.000E+00                      1.000E-01
    84    5.000E+00 5.000E+00                      1.000E-01
    85    5.000E+00 5.000E+00                      1.000E-01
    86    5.000E+00 5.000E+00                      1.000E-01
    87    5.000E+00 5.000E+00                      1.000E-01
    88    5.000E+00 5.000E+00                      1.000E-01
    89    5.000E+00 5.000E+00                      1.000E-01
    90    5.000E+00 5.000E+00                      1.000E-01
    91    5.000E+00 5.000E+00                      1.000E-01
    92    5.000E+00 5.000E+00                      1.000E-01
    93    5.000E+00 5.000E+00                      1.000E-01
    94    5.000E+00 5.000E+00                      1.000E-01
    95    5.000E+00 5.000E+00                      1.000E-01
    96    5.000E+00 5.000E+00                      1.000E-01
    97    5.000E+00 5.000E+00                      1.000E-01
    98    5.000E+00 5.000E+00                      1.000E-01
    99    5.000E+00 5.000E+00                      1.000E-01
   100    5.000E+00 5.000E+00                      1.000E-01
   101    5.000E+00 5.000E+00                      1.000E-01
   102    5.000E+00 5.000E+00                      1.000E-01
   103    5.000E+00 5.000E+00                      1.000E-01
   104    5.000E+00 5.000E+00                      1.000E-01
   105    5.000E+00 5.000E+00                      1.000E-01
   106    5.000E+00 5.000E+00                      1.000E-01
   107    5.000E+00 5.000E+00                      1.000E-01
   108    5.000E+00 5.000E+00                      1.000E-01
   109    5.000E+00 5.000E+00                      1.000E-01
   110    5.000E+00 5.000E+00                      1.000E-01
   111    5.000E+00 5.000E+00                      1.000E-01
   112    5.000E+00 5.000E+00                      1.000E-01
   113    5.000E+00 5.000E+00                      1.000E-01
   114    5.000E+00 5.000E+00                      1.000E-01
   115    5.000E+00 5.000E+00                      1.000E-01
   116    5.000E+00 5.000E+00                      1.000E-01
   117    5.000E+00 5.000E+00                      1.000E-01
   118    5.000E+00 5.000E+00                      1.000E-01
   119    5.000E+00 5.000E+00                      1.000E-01
   120    5.000E+00 5.000E+00                      1.000E-01
   121    5.000E+00 5.000E+00                      1.000E-01
   122    5.000E+00 5.000E+00                      1.000E-01
   123    5.000E+00 5.000E+00                      1.000E-01
   124    5.000E+00 5.000E+00                      1.000E-01
   125    5.000E+00 5.000E+00                      1.000E-01
   126    5.000E+00 5.000E+00                      1.000E-01
   127    5.000E+00 5.000E+00                      1.000E-01
   128    5.000E+00 5.000E+00                      1.000E-01
   129    5.000E+00 5.000E+00                      1.000E-01
   130    5.000E+00 5.000E+00                      1.000E-01
   131    5.000E+00 5.000E+00                      1.000E-01
   132    5.000E+00 5.000E+00                      1.000E-01
   133    5.000E+00 5.000E+00                      1.000E-01
   134    5.000E+00 5.000E+00                      1.000E-01
   135    5.000E+00 5.000E+00                      1.000E-01
   136    5.000E+00 5.000E+00                      1.000E-01
   137    5.000E+00 5.000E+00                      1.000E-01
   138    5.000E+00 5.000E+00                      1.000E-01
   139    5.000E+00 5.000E+00                      1.000E-01
   140    5.000E+00 5.000E+00                      1.000E-01
   141    5.000E+00 5.000E+00                      1.000E-01
   142    5.000E+00 5.000E+00                      1.000E-01
   143    5.000E+00 5.000E+00                      1.000E-01
   144    5.000E+00 5.000E+00                      1.000E-01
   145    5.000E+00 5.000E+00                      1.000E-01
   146    5.000E+00 5.000E+00                      1.000E-01
   147    5.000E+00 5.000E+00                      1.000E-01
   148    5.000E+00 5.000E+00                      1.000E-01
   149    5.000E+00 5.000E+00                      1.000E-01
   150    5.000E+00 5.000E+00                      1.000E-01
   151    5.000E+00 5.000E+00                      1.000E-01
   152    5.000E+00 5.000E+00                      1.000E-01
   153    5.000E+00 5.000E+00                      1.000E-01
   154    5.000E+00 5.000E+00                      1.000E-01
   155    5.000E+00 5.000E+00                      1.000E-01
   156    5.000E+00 5.000E+00                      1.000E-01
   157    5.000E+00 5.000E+00                      1.000E-01
   158    5.000E+00 5.000E+00                      1.000E-01
   159    5.000E+00 5.000E+00                      1.000E-01
   160    5.000E+00 5.000E+00                      1.000E-01



 
 SOLVING FOR HEAD 


 OUTER ITERATION SUMMARY
 -----------------------
 BT: Backtracking; LA: Linear Acceleration; UR: Under-relaxation

    Outer-Iteration  Inner-Iteration    Maximum Head Change  Maximum Head Change
        Number           Count               Value              Location
LA         1                7               0.17083                   778           GWF-node number
LA         2                4               0.48127E-02              1321           GWF-node number
LA         3                2               0.18433E-03              1425           GWF-node number
LA         4                1               0.84698E-05              1427           GWF-node number


     4 CALLS TO SPARSE MATRIX SOLVER PACKAGE  IN FLOW TIME STEP   1 STRESS PERIOD   3

 TOTAL OF       4OUTER ITERATIONS
  MAXIMUM CHANGE FOR EACH ITERATION:
   MAX. CHANGE        NODE  MAX. CHANGE        NODE  MAX. CHANGE        NODE  MAX. CHANGE        NODE  MAX. CHANGE        NODE
 ------------------------------------------------------------------------------------------------------------------------------------
   0.17083    ,        778  0.48127E-02,       1321  0.18433E-03,       1425  0.84698E-05,       1427

 OUTPUT CONTROL FOR STRESS PERIOD        3   TIME STEP        1
    SAVE HEAD FOR ALL LAYERS
    SAVE BUDGET
 UBDSV1U SAVING "         STORAGE" ON UNIT  50 AT TIME STEP      1, STRESS PERIOD      3
 UBDSV2U SAVING "   CONSTANT HEAD" ON UNIT  50 AT TIME STEP      1, STRESS PERIOD      3
 UBDSV1U SAVING "   FLOW JA FACE " ON UNIT  50 AT TIME STEP      1, STRESS PERIOD      3
 UBDSV4U SAVING "           WELLS" ON UNIT  50 AT TIME STEP      1, STRESS PERIOD      3
 UBDSV4U SAVING " HEAD DEP BOUNDS" ON UNIT  50 AT TIME STEP      1, STRESS PERIOD      3
 UBDSV3U SAVING "        RECHARGE" ON UNIT  50 AT TIME STEP      1, STRESS PERIOD      3
 UBDSV2U SAVING "  STREAM LEAKAGE" ON UNIT  50 AT TIME STEP      1, STRESS PERIOD      3




 HEAD WILL BE SAVED ON UNIT   51 AT END OF TIME STEP   1, STRESS PERIOD    3
1
  VOLUMETRIC BUDGET FOR ENTIRE MODEL AT END OF TIME STEP       1 IN STRESS PERIOD       3
  ---------------------------------------------------------------------------------------

     CUMULATIVE VOLUMES      L**3       RATES FOR THIS TIME STEP      L**3/T
     ------------------                 ------------------------

           IN:                                      IN:
           ---                                      ---
             STORAGE =           0.0000               STORAGE =           0.0000
       CONSTANT HEAD =           0.0000         CONSTANT HEAD =           0.0000
               WELLS =           0.0000                 WELLS =           0.0000
     HEAD DEP BOUNDS =       13107.6502       HEAD DEP BOUNDS =         163.0407
            RECHARGE =      250592.0254              RECHARGE =        4270.9521
      STREAM LEAKAGE =        1859.0206        STREAM LEAKAGE =           9.8415

            TOTAL IN =      265558.6961              TOTAL IN =        4443.8344

          OUT:                                     OUT:
          ----                                     ----
             STORAGE =      136779.3907               STORAGE =        2090.4310
       CONSTANT HEAD =           0.0000         CONSTANT HEAD =           0.0000
               WELLS =       53196.5858                 WELLS =         894.7444
     HEAD DEP BOUNDS =       44264.4716       HEAD DEP BOUNDS =         802.9088
            RECHARGE =           0.0000              RECHARGE =           0.0000
      STREAM LEAKAGE =       31317.7519        STREAM LEAKAGE =         655.7468

           TOTAL OUT =      265558.1999             TOTAL OUT =        4443.8310

            IN - OUT =           0.4962              IN - OUT =       3.4062E-03

 PERCENT DISCREPANCY =           0.00     PERCENT DISCREPANCY =           0.00






          TIME SUMMARY AT END OF TIME STEP         1 IN STRESS PERIOD         3
                    SECONDS     MINUTES      HOURS       DAYS        YEARS
                    -----------------------------------------------------------
   TIME STEP LENGTH 2.50560E+06  41760.      696.00      29.000     7.93977E-02
 STRESS PERIOD TIME 2.50560E+06  41760.      696.00      29.000     7.93977E-02
         TOTAL TIME 5.27040E+06  87840.      1464.0      61.000     0.16701    
1
1
                            STRESS PERIOD NO.    4, LENGTH =   31.00000    
                            -----------------------------------------------

                              NUMBER OF TIME STEPS =     1

                               MULTIPLIER FOR DELT =     1.000

                            INITIAL TIME STEP SIZE =   31.00000    

 WEL -- WELL PACKAGE, VERSION 7, 5/2/2005 INPUT READ FROM UNIT   20

 WELL NO.      NODE       STRESS FACTOR         
 -----------------------------------------------
      1        3324      -229.6    
      2        3409      -229.6    
      3        3737      -229.6    
      4        3971      -229.6    
      5        4092      -229.6    
      6        4297      -229.6    

      6 WELLS

 GHB -- GENERAL-HEAD BOUNDARY PACKAGE, VERSION 7, 5/2/2005
         INPUT READ FROM UNIT   30

 BOUND NO.     NODE         STAGE         CONDUCTANCE         
 -------------------------------------------------------------
      1        1473       33.50           70.00    
      2        1474       33.50           70.00    
      3        1475       33.50           70.00    
      4        1476       33.50           70.00    
      5        1477       33.50           70.00    
      6        1478       33.50           70.00    
      7        1479       33.50           70.00    
      8        1480       33.50           70.00    
      9        1481       33.50           70.00    
     10        1482       33.50           70.00    
     11        2972       33.50           70.00    
     12        2973       33.50           70.00    
     13        2974       33.50           70.00    
     14        2975       33.50           70.00    
     15        2976       33.50           70.00    
     16        2977       33.50           70.00    
     17        2978       33.50           70.00    
     18        2979       33.50           70.00    
     19        2980       33.50           70.00    
     20        2981       33.50           70.00    
     21        4471       33.50           70.00    
     22        4472       33.50           70.00    
     23        4473       33.50           70.00    
     24        4474       33.50           70.00    
     25        4475       33.50           70.00    
     26        4476       33.50           70.00    
     27        4477       33.50           70.00    
     28        4478       33.50           70.00    
     29        4479       33.50           70.00    
     30        4480       33.50           70.00    
     31        2999       35.50           70.00    
     32        3000       35.50           70.00    
     33        3001       35.50           70.00    
     34        3002       35.50           70.00    
     35        3003       35.50           70.00    
     36        3004       35.50           70.00    
     37        3005       35.50           70.00    
     38        3006       35.50           70.00    
     39        3007       35.50           70.00    
     40        3008       35.50           70.00    
     41        3009       35.50           70.00    
     42        3010       35.50           70.00    
     43        3011       35.50           70.00    
     44        3012       35.50           70.00    
     45        3013       35.50           70.00    
     46        3023       35.50           4.375    
     47        3027       35.50           17.50    
     48        3028       35.50           70.00    
     49        3029       35.50           70.00    
     50        3030       35.50           70.00    

     50 GHB CELLS

 RCH -- RECHARGE PACKAGE, VERSION 7, 5/2/2005 INPUT READ FROM UNIT   31



                           RECHARGE
 READING ON UNIT   31 WITH FORMAT: (1499E15.6)         



 CLASSIFICATION & COUNT OF STREAM SEGMENTS BASED ON SOURCE OF INFLOW:

                HEADWATER     DIVERSION     RECEIVES TRIBUTARY FLOW
                ---------     ---------     -----------------------
                     1              0             159



                    INPUT DATA FOR EACH STREAM SEGMENT
 ---------------------------------------------------------------------------------------------

 SEGMENT    SEG.     INFLOW   OVERLAND   STREAM    STREAM   ICALC  OUTFLOW  DIVERSION PRIORITY
    NO.    LENGTH     RATE     RUNOFF      ET       PPT.    METH.  TO SEG.  FROM SEG.    NO.

      1  6.250E+01 1.563E+04 0.000E+00 0.000E+00 0.000E+00    1        2        0        0
      2  6.250E+01 0.000E+00 0.000E+00 0.000E+00 0.000E+00    1        3        0        0
      3  6.250E+01 0.000E+00 0.000E+00 0.000E+00 0.000E+00    1        4        0        0
      4  6.250E+01 0.000E+00 0.000E+00 0.000E+00 0.000E+00    1        5        0        0
      5  6.250E+01 0.000E+00 0.000E+00 0.000E+00 0.000E+00    1        6        0        0
      6  6.250E+01 0.000E+00 0.000E+00 0.000E+00 0.000E+00    1        7        0        0
      7  6.250E+01 0.000E+00 0.000E+00 0.000E+00 0.000E+00    1        8        0        0
      8  6.250E+01 0.000E+00 0.000E+00 0.000E+00 0.000E+00    1        9        0        0
      9  6.250E+01 0.000E+00 0.000E+00 0.000E+00 0.000E+00    1       10        0        0
     10  6.250E+01 0.000E+00 0.000E+00 0.000E+00 0.000E+00    1       11        0        0
     11  6.250E+01 0.000E+00 0.000E+00 0.000E+00 0.000E+00    1       12        0        0
     12  6.250E+01 0.000E+00 0.000E+00 0.000E+00 0.000E+00    1       13        0        0
     13  6.250E+01 0.000E+00 0.000E+00 0.000E+00 0.000E+00    1       14        0        0
     14  6.250E+01 0.000E+00 0.000E+00 0.000E+00 0.000E+00    1       15        0        0
     15  6.250E+01 0.000E+00 0.000E+00 0.000E+00 0.000E+00    1       16        0        0
     16  6.250E+01 0.000E+00 0.000E+00 0.000E+00 0.000E+00    1       17        0        0
     17  6.250E+01 0.000E+00 0.000E+00 0.000E+00 0.000E+00    1       18        0        0
     18  6.250E+01 0.000E+00 0.000E+00 0.000E+00 0.000E+00    1       19        0        0
     19  6.250E+01 0.000E+00 0.000E+00 0.000E+00 0.000E+00    1       20        0        0
     20  6.250E+01 0.000E+00 0.000E+00 0.000E+00 0.000E+00    1       21        0        0
     21  6.250E+01 0.000E+00 0.000E+00 0.000E+00 0.000E+00    1       22        0        0
     22  6.250E+01 0.000E+00 0.000E+00 0.000E+00 0.000E+00    1       23        0        0
     23  6.250E+01 0.000E+00 0.000E+00 0.000E+00 0.000E+00    1       24        0        0
     24  6.250E+01 0.000E+00 0.000E+00 0.000E+00 0.000E+00    1       25        0        0
     25  6.250E+01 0.000E+00 0.000E+00 0.000E+00 0.000E+00    1       26        0        0
     26  6.250E+01 0.000E+00 0.000E+00 0.000E+00 0.000E+00    1       27        0        0
     27  6.250E+01 0.000E+00 0.000E+00 0.000E+00 0.000E+00    1       28        0        0
     28  6.250E+01 0.000E+00 0.000E+00 0.000E+00 0.000E+00    1       29        0        0
     29  6.250E+01 0.000E+00 0.000E+00 0.000E+00 0.000E+00    1       30        0        0
     30  6.250E+01 0.000E+00 0.000E+00 0.000E+00 0.000E+00    1       31        0        0
     31  6.250E+01 0.000E+00 0.000E+00 0.000E+00 0.000E+00    1       32        0        0
     32  6.250E+01 0.000E+00 0.000E+00 0.000E+00 0.000E+00    1       33        0        0
     33  6.250E+01 0.000E+00 0.000E+00 0.000E+00 0.000E+00    1       34        0        0
     34  6.250E+01 0.000E+00 0.000E+00 0.000E+00 0.000E+00    1       35        0        0
     35  6.250E+01 0.000E+00 0.000E+00 0.000E+00 0.000E+00    1       36        0        0
     36  6.250E+01 0.000E+00 0.000E+00 0.000E+00 0.000E+00    1       37        0        0
     37  6.250E+01 0.000E+00 0.000E+00 0.000E+00 0.000E+00    1       38        0        0
     38  6.250E+01 0.000E+00 0.000E+00 0.000E+00 0.000E+00    1       39        0        0
     39  6.250E+01 0.000E+00 0.000E+00 0.000E+00 0.000E+00    1       40        0        0
     40  6.250E+01 0.000E+00 0.000E+00 0.000E+00 0.000E+00    1       41        0        0
     41  6.250E+01 0.000E+00 0.000E+00 0.000E+00 0.000E+00    1       42        0        0
     42  6.250E+01 0.000E+00 0.000E+00 0.000E+00 0.000E+00    1       43        0        0
     43  6.250E+01 0.000E+00 0.000E+00 0.000E+00 0.000E+00    1       44        0        0
     44  6.250E+01 0.000E+00 0.000E+00 0.000E+00 0.000E+00    1       45        0        0
     45  6.250E+01 0.000E+00 0.000E+00 0.000E+00 0.000E+00    1       46        0        0
     46  6.250E+01 0.000E+00 0.000E+00 0.000E+00 0.000E+00    1       47        0        0
     47  6.250E+01 0.000E+00 0.000E+00 0.000E+00 0.000E+00    1       48        0        0
     48  6.250E+01 0.000E+00 0.000E+00 0.000E+00 0.000E+00    1       49        0        0
     49  6.250E+01 0.000E+00 0.000E+00 0.000E+00 0.000E+00    1       50        0        0
     50  6.250E+01 0.000E+00 0.000E+00 0.000E+00 0.000E+00    1       51        0        0
     51  6.250E+01 0.000E+00 0.000E+00 0.000E+00 0.000E+00    1       52        0        0
     52  6.250E+01 0.000E+00 0.000E+00 0.000E+00 0.000E+00    1       53        0        0
     53  6.250E+01 0.000E+00 0.000E+00 0.000E+00 0.000E+00    1       54        0        0
     54  6.250E+01 0.000E+00 0.000E+00 0.000E+00 0.000E+00    1       55        0        0
     55  6.250E+01 0.000E+00 0.000E+00 0.000E+00 0.000E+00    1       56        0        0
     56  6.250E+01 0.000E+00 0.000E+00 0.000E+00 0.000E+00    1       57        0        0
     57  6.250E+01 0.000E+00 0.000E+00 0.000E+00 0.000E+00    1       58        0        0
     58  6.250E+01 0.000E+00 0.000E+00 0.000E+00 0.000E+00    1       59        0        0
     59  6.250E+01 0.000E+00 0.000E+00 0.000E+00 0.000E+00    1       60        0        0
     60  6.250E+01 0.000E+00 0.000E+00 0.000E+00 0.000E+00    1       61        0        0
     61  6.250E+01 0.000E+00 0.000E+00 0.000E+00 0.000E+00    1       62        0        0
     62  6.250E+01 0.000E+00 0.000E+00 0.000E+00 0.000E+00    1       63        0        0
     63  6.250E+01 0.000E+00 0.000E+00 0.000E+00 0.000E+00    1       64        0        0
     64  6.250E+01 0.000E+00 0.000E+00 0.000E+00 0.000E+00    1       65        0        0
     65  6.250E+01 0.000E+00 0.000E+00 0.000E+00 0.000E+00    1       66        0        0
     66  6.250E+01 0.000E+00 0.000E+00 0.000E+00 0.000E+00    1       67        0        0
     67  6.250E+01 0.000E+00 0.000E+00 0.000E+00 0.000E+00    1       68        0        0
     68  6.250E+01 0.000E+00 0.000E+00 0.000E+00 0.000E+00    1       69        0        0
     69  6.250E+01 0.000E+00 0.000E+00 0.000E+00 0.000E+00    1       70        0        0
     70  6.250E+01 0.000E+00 0.000E+00 0.000E+00 0.000E+00    1       71        0        0
     71  6.250E+01 0.000E+00 0.000E+00 0.000E+00 0.000E+00    1       72        0        0
     72  6.250E+01 0.000E+00 0.000E+00 0.000E+00 0.000E+00    1       73        0        0
     73  6.250E+01 0.000E+00 0.000E+00 0.000E+00 0.000E+00    1       74        0        0
     74  6.250E+01 0.000E+00 0.000E+00 0.000E+00 0.000E+00    1       75        0        0
     75  6.250E+01 0.000E+00 0.000E+00 0.000E+00 0.000E+00    1       76        0        0
     76  6.250E+01 0.000E+00 0.000E+00 0.000E+00 0.000E+00    1       77        0        0
     77  6.250E+01 0.000E+00 0.000E+00 0.000E+00 0.000E+00    1       78        0        0
     78  6.250E+01 0.000E+00 0.000E+00 0.000E+00 0.000E+00    1       79        0        0
     79  6.250E+01 0.000E+00 0.000E+00 0.000E+00 0.000E+00    1       80        0        0
     80  6.250E+01 0.000E+00 0.000E+00 0.000E+00 0.000E+00    1       81        0        0
     81  6.250E+01 0.000E+00 0.000E+00 0.000E+00 0.000E+00    1       82        0        0
     82  6.250E+01 0.000E+00 0.000E+00 0.000E+00 0.000E+00    1       83        0        0
     83  6.250E+01 0.000E+00 0.000E+00 0.000E+00 0.000E+00    1       84        0        0
     84  6.250E+01 0.000E+00 0.000E+00 0.000E+00 0.000E+00    1       85        0        0
     85  6.250E+01 0.000E+00 0.000E+00 0.000E+00 0.000E+00    1       86        0        0
     86  6.250E+01 0.000E+00 0.000E+00 0.000E+00 0.000E+00    1       87        0        0
     87  6.250E+01 0.000E+00 0.000E+00 0.000E+00 0.000E+00    1       88        0        0
     88  6.250E+01 0.000E+00 0.000E+00 0.000E+00 0.000E+00    1       89        0        0
     89  6.250E+01 0.000E+00 0.000E+00 0.000E+00 0.000E+00    1       90        0        0
     90  6.250E+01 0.000E+00 0.000E+00 0.000E+00 0.000E+00    1       91        0        0
     91  6.250E+01 0.000E+00 0.000E+00 0.000E+00 0.000E+00    1       92        0        0
     92  6.250E+01 0.000E+00 0.000E+00 0.000E+00 0.000E+00    1       93        0        0
     93  6.250E+01 0.000E+00 0.000E+00 0.000E+00 0.000E+00    1       94        0        0
     94  6.250E+01 0.000E+00 0.000E+00 0.000E+00 0.000E+00    1       95        0        0
     95  6.250E+01 0.000E+00 0.000E+00 0.000E+00 0.000E+00    1       96        0        0
     96  6.250E+01 0.000E+00 0.000E+00 0.000E+00 0.000E+00    1       97        0        0
     97  6.250E+01 0.000E+00 0.000E+00 0.000E+00 0.000E+00    1       98        0        0
     98  6.250E+01 0.000E+00 0.000E+00 0.000E+00 0.000E+00    1       99        0        0
     99  6.250E+01 0.000E+00 0.000E+00 0.000E+00 0.000E+00    1      100        0        0
    100  6.250E+01 0.000E+00 0.000E+00 0.000E+00 0.000E+00    1      101        0        0
    101  6.250E+01 0.000E+00 0.000E+00 0.000E+00 0.000E+00    1      102        0        0
    102  6.250E+01 0.000E+00 0.000E+00 0.000E+00 0.000E+00    1      103        0        0
    103  6.250E+01 0.000E+00 0.000E+00 0.000E+00 0.000E+00    1      104        0        0
    104  6.250E+01 0.000E+00 0.000E+00 0.000E+00 0.000E+00    1      105        0        0
    105  6.250E+01 0.000E+00 0.000E+00 0.000E+00 0.000E+00    1      106        0        0
    106  6.250E+01 0.000E+00 0.000E+00 0.000E+00 0.000E+00    1      107        0        0
    107  6.250E+01 0.000E+00 0.000E+00 0.000E+00 0.000E+00    1      108        0        0
    108  6.250E+01 0.000E+00 0.000E+00 0.000E+00 0.000E+00    1      109        0        0
    109  6.250E+01 0.000E+00 0.000E+00 0.000E+00 0.000E+00    1      110        0        0
    110  6.250E+01 0.000E+00 0.000E+00 0.000E+00 0.000E+00    1      111        0        0
    111  6.250E+01 0.000E+00 0.000E+00 0.000E+00 0.000E+00    1      112        0        0
    112  6.250E+01 0.000E+00 0.000E+00 0.000E+00 0.000E+00    1      113        0        0
    113  6.250E+01 0.000E+00 0.000E+00 0.000E+00 0.000E+00    1      114        0        0
    114  6.250E+01 0.000E+00 0.000E+00 0.000E+00 0.000E+00    1      115        0        0
    115  6.250E+01 0.000E+00 0.000E+00 0.000E+00 0.000E+00    1      116        0        0
    116  6.250E+01 0.000E+00 0.000E+00 0.000E+00 0.000E+00    1      117        0        0
    117  6.250E+01 0.000E+00 0.000E+00 0.000E+00 0.000E+00    1      118        0        0
    118  6.250E+01 0.000E+00 0.000E+00 0.000E+00 0.000E+00    1      119        0        0
    119  6.250E+01 0.000E+00 0.000E+00 0.000E+00 0.000E+00    1      120        0        0
    120  6.250E+01 0.000E+00 0.000E+00 0.000E+00 0.000E+00    1      121        0        0
    121  6.250E+01 0.000E+00 0.000E+00 0.000E+00 0.000E+00    1      122        0        0
    122  6.250E+01 0.000E+00 0.000E+00 0.000E+00 0.000E+00    1      123        0        0
    123  6.250E+01 0.000E+00 0.000E+00 0.000E+00 0.000E+00    1      124        0        0
    124  6.250E+01 0.000E+00 0.000E+00 0.000E+00 0.000E+00    1      125        0        0
    125  6.250E+01 0.000E+00 0.000E+00 0.000E+00 0.000E+00    1      126        0        0
    126  6.250E+01 0.000E+00 0.000E+00 0.000E+00 0.000E+00    1      127        0        0
    127  6.250E+01 0.000E+00 0.000E+00 0.000E+00 0.000E+00    1      128        0        0
    128  6.250E+01 0.000E+00 0.000E+00 0.000E+00 0.000E+00    1      129        0        0
    129  6.250E+01 0.000E+00 0.000E+00 0.000E+00 0.000E+00    1      130        0        0
    130  6.250E+01 0.000E+00 0.000E+00 0.000E+00 0.000E+00    1      131        0        0
    131  6.250E+01 0.000E+00 0.000E+00 0.000E+00 0.000E+00    1      132        0        0
    132  6.250E+01 0.000E+00 0.000E+00 0.000E+00 0.000E+00    1      133        0        0
    133  6.250E+01 0.000E+00 0.000E+00 0.000E+00 0.000E+00    1      134        0        0
    134  6.250E+01 0.000E+00 0.000E+00 0.000E+00 0.000E+00    1      135        0        0
    135  6.250E+01 0.000E+00 0.000E+00 0.000E+00 0.000E+00    1      136        0        0
    136  6.250E+01 0.000E+00 0.000E+00 0.000E+00 0.000E+00    1      137        0        0
    137  6.250E+01 0.000E+00 0.000E+00 0.000E+00 0.000E+00    1      138        0        0
    138  6.250E+01 0.000E+00 0.000E+00 0.000E+00 0.000E+00    1      139        0        0
    139  6.250E+01 0.000E+00 0.000E+00 0.000E+00 0.000E+00    1      140        0        0
    140  6.250E+01 0.000E+00 0.000E+00 0.000E+00 0.000E+00    1      141        0        0
    141  6.250E+01 0.000E+00 0.000E+00 0.000E+00 0.000E+00    1      142        0        0
    142  6.250E+01 0.000E+00 0.000E+00 0.000E+00 0.000E+00    1      143        0        0
    143  6.250E+01 0.000E+00 0.000E+00 0.000E+00 0.000E+00    1      144        0        0
    144  6.250E+01 0.000E+00 0.000E+00 0.000E+00 0.000E+00    1      145        0        0
    145  6.250E+01 0.000E+00 0.000E+00 0.000E+00 0.000E+00    1      146        0        0
    146  6.250E+01 0.000E+00 0.000E+00 0.000E+00 0.000E+00    1      147        0        0
    147  6.250E+01 0.000E+00 0.000E+00 0.000E+00 0.000E+00    1      148        0        0
    148  6.250E+01 0.000E+00 0.000E+00 0.000E+00 0.000E+00    1      149        0        0
    149  6.250E+01 0.000E+00 0.000E+00 0.000E+00 0.000E+00    1      150        0        0
    150  6.250E+01 0.000E+00 0.000E+00 0.000E+00 0.000E+00    1      151        0        0
    151  6.250E+01 0.000E+00 0.000E+00 0.000E+00 0.000E+00    1      152        0        0
    152  6.250E+01 0.000E+00 0.000E+00 0.000E+00 0.000E+00    1      153        0        0
    153  6.250E+01 0.000E+00 0.000E+00 0.000E+00 0.000E+00    1      154        0        0
    154  6.250E+01 0.000E+00 0.000E+00 0.000E+00 0.000E+00    1      155        0        0
    155  6.250E+01 0.000E+00 0.000E+00 0.000E+00 0.000E+00    1      156        0        0
    156  6.250E+01 0.000E+00 0.000E+00 0.000E+00 0.000E+00    1      157        0        0
    157  6.250E+01 0.000E+00 0.000E+00 0.000E+00 0.000E+00    1      158        0        0
    158  6.250E+01 0.000E+00 0.000E+00 0.000E+00 0.000E+00    1      159        0        0
    159  6.250E+01 0.000E+00 0.000E+00 0.000E+00 0.000E+00    1      160        0        0
    160  6.250E+01 0.000E+00 0.000E+00 0.000E+00 0.000E+00    1      161        0        0


         STREAMBED PROPERTIES AND STREAM DIMENSIONS

 SEGMENT     WIDTH OF STREAM     DEPTH OF STREAM    STREAM ROUGHNESS
    No.     UPPER     LOWER     UPPER     LOWER     CHANNEL      BANK

     1    5.000E+00 5.000E+00                      1.000E-01
     2    5.000E+00 5.000E+00                      1.000E-01
     3    5.000E+00 5.000E+00                      1.000E-01
     4    5.000E+00 5.000E+00                      1.000E-01
     5    5.000E+00 5.000E+00                      1.000E-01
     6    5.000E+00 5.000E+00                      1.000E-01
     7    5.000E+00 5.000E+00                      1.000E-01
     8    5.000E+00 5.000E+00                      1.000E-01
     9    5.000E+00 5.000E+00                      1.000E-01
    10    5.000E+00 5.000E+00                      1.000E-01
    11    5.000E+00 5.000E+00                      1.000E-01
    12    5.000E+00 5.000E+00                      1.000E-01
    13    5.000E+00 5.000E+00                      1.000E-01
    14    5.000E+00 5.000E+00                      1.000E-01
    15    5.000E+00 5.000E+00                      1.000E-01
    16    5.000E+00 5.000E+00                      1.000E-01
    17    5.000E+00 5.000E+00                      1.000E-01
    18    5.000E+00 5.000E+00                      1.000E-01
    19    5.000E+00 5.000E+00                      1.000E-01
    20    5.000E+00 5.000E+00                      1.000E-01
    21    5.000E+00 5.000E+00                      1.000E-01
    22    5.000E+00 5.000E+00                      1.000E-01
    23    5.000E+00 5.000E+00                      1.000E-01
    24    5.000E+00 5.000E+00                      1.000E-01
    25    5.000E+00 5.000E+00                      1.000E-01
    26    5.000E+00 5.000E+00                      1.000E-01
    27    5.000E+00 5.000E+00                      1.000E-01
    28    5.000E+00 5.000E+00                      1.000E-01
    29    5.000E+00 5.000E+00                      1.000E-01
    30    5.000E+00 5.000E+00                      1.000E-01
    31    5.000E+00 5.000E+00                      1.000E-01
    32    5.000E+00 5.000E+00                      1.000E-01
    33    5.000E+00 5.000E+00                      1.000E-01
    34    5.000E+00 5.000E+00                      1.000E-01
    35    5.000E+00 5.000E+00                      1.000E-01
    36    5.000E+00 5.000E+00                      1.000E-01
    37    5.000E+00 5.000E+00                      1.000E-01
    38    5.000E+00 5.000E+00                      1.000E-01
    39    5.000E+00 5.000E+00                      1.000E-01
    40    5.000E+00 5.000E+00                      1.000E-01
    41    5.000E+00 5.000E+00                      1.000E-01
    42    5.000E+00 5.000E+00                      1.000E-01
    43    5.000E+00 5.000E+00                      1.000E-01
    44    5.000E+00 5.000E+00                      1.000E-01
    45    5.000E+00 5.000E+00                      1.000E-01
    46    5.000E+00 5.000E+00                      1.000E-01
    47    5.000E+00 5.000E+00                      1.000E-01
    48    5.000E+00 5.000E+00                      1.000E-01
    49    5.000E+00 5.000E+00                      1.000E-01
    50    5.000E+00 5.000E+00                      1.000E-01
    51    5.000E+00 5.000E+00                      1.000E-01
    52    5.000E+00 5.000E+00                      1.000E-01
    53    5.000E+00 5.000E+00                      1.000E-01
    54    5.000E+00 5.000E+00                      1.000E-01
    55    5.000E+00 5.000E+00                      1.000E-01
    56    5.000E+00 5.000E+00                      1.000E-01
    57    5.000E+00 5.000E+00                      1.000E-01
    58    5.000E+00 5.000E+00                      1.000E-01
    59    5.000E+00 5.000E+00                      1.000E-01
    60    5.000E+00 5.000E+00                      1.000E-01
    61    5.000E+00 5.000E+00                      1.000E-01
    62    5.000E+00 5.000E+00                      1.000E-01
    63    5.000E+00 5.000E+00                      1.000E-01
    64    5.000E+00 5.000E+00                      1.000E-01
    65    5.000E+00 5.000E+00                      1.000E-01
    66    5.000E+00 5.000E+00                      1.000E-01
    67    5.000E+00 5.000E+00                      1.000E-01
    68    5.000E+00 5.000E+00                      1.000E-01
    69    5.000E+00 5.000E+00                      1.000E-01
    70    5.000E+00 5.000E+00                      1.000E-01
    71    5.000E+00 5.000E+00                      1.000E-01
    72    5.000E+00 5.000E+00                      1.000E-01
    73    5.000E+00 5.000E+00                      1.000E-01
    74    5.000E+00 5.000E+00                      1.000E-01
    75    5.000E+00 5.000E+00                      1.000E-01
    76    5.000E+00 5.000E+00                      1.000E-01
    77    5.000E+00 5.000E+00                      1.000E-01
    78    5.000E+00 5.000E+00                      1.000E-01
    79    5.000E+00 5.000E+00                      1.000E-01
    80    5.000E+00 5.000E+00                      1.000E-01
    81    5.000E+00 5.000E+00                      1.000E-01
    82    5.000E+00 5.000E+00                      1.000E-01
    83    5.000E+00 5.000E+00                      1.000E-01
    84    5.000E+00 5.000E+00                      1.000E-01
    85    5.000E+00 5.000E+00                      1.000E-01
    86    5.000E+00 5.000E+00                      1.000E-01
    87    5.000E+00 5.000E+00                      1.000E-01
    88    5.000E+00 5.000E+00                      1.000E-01
    89    5.000E+00 5.000E+00                      1.000E-01
    90    5.000E+00 5.000E+00                      1.000E-01
    91    5.000E+00 5.000E+00                      1.000E-01
    92    5.000E+00 5.000E+00                      1.000E-01
    93    5.000E+00 5.000E+00                      1.000E-01
    94    5.000E+00 5.000E+00                      1.000E-01
    95    5.000E+00 5.000E+00                      1.000E-01
    96    5.000E+00 5.000E+00                      1.000E-01
    97    5.000E+00 5.000E+00                      1.000E-01
    98    5.000E+00 5.000E+00                      1.000E-01
    99    5.000E+00 5.000E+00                      1.000E-01
   100    5.000E+00 5.000E+00                      1.000E-01
   101    5.000E+00 5.000E+00                      1.000E-01
   102    5.000E+00 5.000E+00                      1.000E-01
   103    5.000E+00 5.000E+00                      1.000E-01
   104    5.000E+00 5.000E+00                      1.000E-01
   105    5.000E+00 5.000E+00                      1.000E-01
   106    5.000E+00 5.000E+00                      1.000E-01
   107    5.000E+00 5.000E+00                      1.000E-01
   108    5.000E+00 5.000E+00                      1.000E-01
   109    5.000E+00 5.000E+00                      1.000E-01
   110    5.000E+00 5.000E+00                      1.000E-01
   111    5.000E+00 5.000E+00                      1.000E-01
   112    5.000E+00 5.000E+00                      1.000E-01
   113    5.000E+00 5.000E+00                      1.000E-01
   114    5.000E+00 5.000E+00                      1.000E-01
   115    5.000E+00 5.000E+00                      1.000E-01
   116    5.000E+00 5.000E+00                      1.000E-01
   117    5.000E+00 5.000E+00                      1.000E-01
   118    5.000E+00 5.000E+00                      1.000E-01
   119    5.000E+00 5.000E+00                      1.000E-01
   120    5.000E+00 5.000E+00                      1.000E-01
   121    5.000E+00 5.000E+00                      1.000E-01
   122    5.000E+00 5.000E+00                      1.000E-01
   123    5.000E+00 5.000E+00                      1.000E-01
   124    5.000E+00 5.000E+00                      1.000E-01
   125    5.000E+00 5.000E+00                      1.000E-01
   126    5.000E+00 5.000E+00                      1.000E-01
   127    5.000E+00 5.000E+00                      1.000E-01
   128    5.000E+00 5.000E+00                      1.000E-01
   129    5.000E+00 5.000E+00                      1.000E-01
   130    5.000E+00 5.000E+00                      1.000E-01
   131    5.000E+00 5.000E+00                      1.000E-01
   132    5.000E+00 5.000E+00                      1.000E-01
   133    5.000E+00 5.000E+00                      1.000E-01
   134    5.000E+00 5.000E+00                      1.000E-01
   135    5.000E+00 5.000E+00                      1.000E-01
   136    5.000E+00 5.000E+00                      1.000E-01
   137    5.000E+00 5.000E+00                      1.000E-01
   138    5.000E+00 5.000E+00                      1.000E-01
   139    5.000E+00 5.000E+00                      1.000E-01
   140    5.000E+00 5.000E+00                      1.000E-01
   141    5.000E+00 5.000E+00                      1.000E-01
   142    5.000E+00 5.000E+00                      1.000E-01
   143    5.000E+00 5.000E+00                      1.000E-01
   144    5.000E+00 5.000E+00                      1.000E-01
   145    5.000E+00 5.000E+00                      1.000E-01
   146    5.000E+00 5.000E+00                      1.000E-01
   147    5.000E+00 5.000E+00                      1.000E-01
   148    5.000E+00 5.000E+00                      1.000E-01
   149    5.000E+00 5.000E+00                      1.000E-01
   150    5.000E+00 5.000E+00                      1.000E-01
   151    5.000E+00 5.000E+00                      1.000E-01
   152    5.000E+00 5.000E+00                      1.000E-01
   153    5.000E+00 5.000E+00                      1.000E-01
   154    5.000E+00 5.000E+00                      1.000E-01
   155    5.000E+00 5.000E+00                      1.000E-01
   156    5.000E+00 5.000E+00                      1.000E-01
   157    5.000E+00 5.000E+00                      1.000E-01
   158    5.000E+00 5.000E+00                      1.000E-01
   159    5.000E+00 5.000E+00                      1.000E-01
   160    5.000E+00 5.000E+00                      1.000E-01



 
 SOLVING FOR HEAD 


 OUTER ITERATION SUMMARY
 -----------------------
 BT: Backtracking; LA: Linear Acceleration; UR: Under-relaxation

    Outer-Iteration  Inner-Iteration    Maximum Head Change  Maximum Head Change
        Number           Count               Value              Location
LA         1                7               0.11996                   772           GWF-node number
LA         2                4               0.15606E-02              1092           GWF-node number
LA         3                2               0.10556E-03              2796           GWF-node number
LA         4                1              -0.23896E-04              4431           GWF-node number


     4 CALLS TO SPARSE MATRIX SOLVER PACKAGE  IN FLOW TIME STEP   1 STRESS PERIOD   4

 TOTAL OF       4OUTER ITERATIONS
  MAXIMUM CHANGE FOR EACH ITERATION:
   MAX. CHANGE        NODE  MAX. CHANGE        NODE  MAX. CHANGE        NODE  MAX. CHANGE        NODE  MAX. CHANGE        NODE
 ------------------------------------------------------------------------------------------------------------------------------------
   0.11996    ,        772  0.15606E-02,       1092  0.10556E-03,       2796 -0.23896E-04,       4431

 OUTPUT CONTROL FOR STRESS PERIOD        4   TIME STEP        1
    SAVE HEAD FOR ALL LAYERS
    SAVE BUDGET
 UBDSV1U SAVING "         STORAGE" ON UNIT  50 AT TIME STEP      1, STRESS PERIOD      4
 UBDSV2U SAVING "   CONSTANT HEAD" ON UNIT  50 AT TIME STEP      1, STRESS PERIOD      4
 UBDSV1U SAVING "   FLOW JA FACE " ON UNIT  50 AT TIME STEP      1, STRESS PERIOD      4
 UBDSV4U SAVING "           WELLS" ON UNIT  50 AT TIME STEP      1, STRESS PERIOD      4
 UBDSV4U SAVING " HEAD DEP BOUNDS" ON UNIT  50 AT TIME STEP      1, STRESS PERIOD      4
 UBDSV3U SAVING "        RECHARGE" ON UNIT  50 AT TIME STEP      1, STRESS PERIOD      4
 UBDSV2U SAVING "  STREAM LEAKAGE" ON UNIT  50 AT TIME STEP      1, STRESS PERIOD      4




 HEAD WILL BE SAVED ON UNIT   51 AT END OF TIME STEP   1, STRESS PERIOD    4
1
  VOLUMETRIC BUDGET FOR ENTIRE MODEL AT END OF TIME STEP       1 IN STRESS PERIOD       4
  ---------------------------------------------------------------------------------------

     CUMULATIVE VOLUMES      L**3       RATES FOR THIS TIME STEP      L**3/T
     ------------------                 ------------------------

           IN:                                      IN:
           ---                                      ---
             STORAGE =       1.7029E-02               STORAGE =       5.4931E-04
       CONSTANT HEAD =           0.0000         CONSTANT HEAD =           0.0000
               WELLS =           0.0000                 WELLS =           0.0000
     HEAD DEP BOUNDS =       16884.9263       HEAD DEP BOUNDS =         121.8476
            RECHARGE =      376061.9521              RECHARGE =        4047.4170
      STREAM LEAKAGE =        1874.2120        STREAM LEAKAGE =           0.4900

            TOTAL IN =      394821.1076              TOTAL IN =        4169.7552

          OUT:                                     OUT:
          ----                                     ----
             STORAGE =      169004.3443               STORAGE =        1039.5146
       CONSTANT HEAD =           0.0000         CONSTANT HEAD =           0.0000
               WELLS =       95904.2758                 WELLS =        1377.6675
     HEAD DEP BOUNDS =       71735.5651       HEAD DEP BOUNDS =         886.1643
            RECHARGE =           0.0000              RECHARGE =           0.0000
      STREAM LEAKAGE =       58176.2019        STREAM LEAKAGE =         866.4016

           TOTAL OUT =      394820.3870             TOTAL OUT =        4169.7480

            IN - OUT =           0.7205              IN - OUT =       7.1753E-03

 PERCENT DISCREPANCY =           0.00     PERCENT DISCREPANCY =           0.00






          TIME SUMMARY AT END OF TIME STEP         1 IN STRESS PERIOD         4
                    SECONDS     MINUTES      HOURS       DAYS        YEARS
                    -----------------------------------------------------------
   TIME STEP LENGTH 2.67840E+06  44640.      744.00      31.000     8.48734E-02
 STRESS PERIOD TIME 2.67840E+06  44640.      744.00      31.000     8.48734E-02
         TOTAL TIME 7.94880E+06 1.32480E+05  2208.0      92.000     0.25188    
1
1
                            STRESS PERIOD NO.    5, LENGTH =   30.00000    
                            -----------------------------------------------

                              NUMBER OF TIME STEPS =     1

                               MULTIPLIER FOR DELT =     1.000

                            INITIAL TIME STEP SIZE =   30.00000    

 WEL -- WELL PACKAGE, VERSION 7, 5/2/2005 INPUT READ FROM UNIT   20

 WELL NO.      NODE       STRESS FACTOR         
 -----------------------------------------------
      1        3324      -352.4    
      2        3409      -352.4    
      3        3737      -352.4    
      4        3971      -352.4    
      5        4092      -352.4    
      6        4297      -352.4    

      6 WELLS

 GHB -- GENERAL-HEAD BOUNDARY PACKAGE, VERSION 7, 5/2/2005
         INPUT READ FROM UNIT   30

 BOUND NO.     NODE         STAGE         CONDUCTANCE         
 -------------------------------------------------------------
      1        1473       33.50           70.00    
      2        1474       33.50           70.00    
      3        1475       33.50           70.00    
      4        1476       33.50           70.00    
      5        1477       33.50           70.00    
      6        1478       33.50           70.00    
      7        1479       33.50           70.00    
      8        1480       33.50           70.00    
      9        1481       33.50           70.00    
     10        1482       33.50           70.00    
     11        2972       33.50           70.00    
     12        2973       33.50           70.00    
     13        2974       33.50           70.00    
     14        2975       33.50           70.00    
     15        2976       33.50           70.00    
     16        2977       33.50           70.00    
     17        2978       33.50           70.00    
     18        2979       33.50           70.00    
     19        2980       33.50           70.00    
     20        2981       33.50           70.00    
     21        4471       33.50           70.00    
     22        4472       33.50           70.00    
     23        4473       33.50           70.00    
     24        4474       33.50           70.00    
     25        4475       33.50           70.00    
     26        4476       33.50           70.00    
     27        4477       33.50           70.00    
     28        4478       33.50           70.00    
     29        4479       33.50           70.00    
     30        4480       33.50           70.00    
     31        2999       35.50           70.00    
     32        3000       35.50           70.00    
     33        3001       35.50           70.00    
     34        3002       35.50           70.00    
     35        3003       35.50           70.00    
     36        3004       35.50           70.00    
     37        3005       35.50           70.00    
     38        3006       35.50           70.00    
     39        3007       35.50           70.00    
     40        3008       35.50           70.00    
     41        3009       35.50           70.00    
     42        3010       35.50           70.00    
     43        3011       35.50           70.00    
     44        3012       35.50           70.00    
     45        3013       35.50           70.00    
     46        3023       35.50           4.375    
     47        3027       35.50           17.50    
     48        3028       35.50           70.00    
     49        3029       35.50           70.00    
     50        3030       35.50           70.00    

     50 GHB CELLS

 RCH -- RECHARGE PACKAGE, VERSION 7, 5/2/2005 INPUT READ FROM UNIT   31



                           RECHARGE
 READING ON UNIT   31 WITH FORMAT: (1499E15.6)         



 CLASSIFICATION & COUNT OF STREAM SEGMENTS BASED ON SOURCE OF INFLOW:

                HEADWATER     DIVERSION     RECEIVES TRIBUTARY FLOW
                ---------     ---------     -----------------------
                     1              0             159



                    INPUT DATA FOR EACH STREAM SEGMENT
 ---------------------------------------------------------------------------------------------

 SEGMENT    SEG.     INFLOW   OVERLAND   STREAM    STREAM   ICALC  OUTFLOW  DIVERSION PRIORITY
    NO.    LENGTH     RATE     RUNOFF      ET       PPT.    METH.  TO SEG.  FROM SEG.    NO.

      1  6.250E+01 1.313E+04 0.000E+00 0.000E+00 0.000E+00    1        2        0        0
      2  6.250E+01 0.000E+00 0.000E+00 0.000E+00 0.000E+00    1        3        0        0
      3  6.250E+01 0.000E+00 0.000E+00 0.000E+00 0.000E+00    1        4        0        0
      4  6.250E+01 0.000E+00 0.000E+00 0.000E+00 0.000E+00    1        5        0        0
      5  6.250E+01 0.000E+00 0.000E+00 0.000E+00 0.000E+00    1        6        0        0
      6  6.250E+01 0.000E+00 0.000E+00 0.000E+00 0.000E+00    1        7        0        0
      7  6.250E+01 0.000E+00 0.000E+00 0.000E+00 0.000E+00    1        8        0        0
      8  6.250E+01 0.000E+00 0.000E+00 0.000E+00 0.000E+00    1        9        0        0
      9  6.250E+01 0.000E+00 0.000E+00 0.000E+00 0.000E+00    1       10        0        0
     10  6.250E+01 0.000E+00 0.000E+00 0.000E+00 0.000E+00    1       11        0        0
     11  6.250E+01 0.000E+00 0.000E+00 0.000E+00 0.000E+00    1       12        0        0
     12  6.250E+01 0.000E+00 0.000E+00 0.000E+00 0.000E+00    1       13        0        0
     13  6.250E+01 0.000E+00 0.000E+00 0.000E+00 0.000E+00    1       14        0        0
     14  6.250E+01 0.000E+00 0.000E+00 0.000E+00 0.000E+00    1       15        0        0
     15  6.250E+01 0.000E+00 0.000E+00 0.000E+00 0.000E+00    1       16        0        0
     16  6.250E+01 0.000E+00 0.000E+00 0.000E+00 0.000E+00    1       17        0        0
     17  6.250E+01 0.000E+00 0.000E+00 0.000E+00 0.000E+00    1       18        0        0
     18  6.250E+01 0.000E+00 0.000E+00 0.000E+00 0.000E+00    1       19        0        0
     19  6.250E+01 0.000E+00 0.000E+00 0.000E+00 0.000E+00    1       20        0        0
     20  6.250E+01 0.000E+00 0.000E+00 0.000E+00 0.000E+00    1       21        0        0
     21  6.250E+01 0.000E+00 0.000E+00 0.000E+00 0.000E+00    1       22        0        0
     22  6.250E+01 0.000E+00 0.000E+00 0.000E+00 0.000E+00    1       23        0        0
     23  6.250E+01 0.000E+00 0.000E+00 0.000E+00 0.000E+00    1       24        0        0
     24  6.250E+01 0.000E+00 0.000E+00 0.000E+00 0.000E+00    1       25        0        0
     25  6.250E+01 0.000E+00 0.000E+00 0.000E+00 0.000E+00    1       26        0        0
     26  6.250E+01 0.000E+00 0.000E+00 0.000E+00 0.000E+00    1       27        0        0
     27  6.250E+01 0.000E+00 0.000E+00 0.000E+00 0.000E+00    1       28        0        0
     28  6.250E+01 0.000E+00 0.000E+00 0.000E+00 0.000E+00    1       29        0        0
     29  6.250E+01 0.000E+00 0.000E+00 0.000E+00 0.000E+00    1       30        0        0
     30  6.250E+01 0.000E+00 0.000E+00 0.000E+00 0.000E+00    1       31        0        0
     31  6.250E+01 0.000E+00 0.000E+00 0.000E+00 0.000E+00    1       32        0        0
     32  6.250E+01 0.000E+00 0.000E+00 0.000E+00 0.000E+00    1       33        0        0
     33  6.250E+01 0.000E+00 0.000E+00 0.000E+00 0.000E+00    1       34        0        0
     34  6.250E+01 0.000E+00 0.000E+00 0.000E+00 0.000E+00    1       35        0        0
     35  6.250E+01 0.000E+00 0.000E+00 0.000E+00 0.000E+00    1       36        0        0
     36  6.250E+01 0.000E+00 0.000E+00 0.000E+00 0.000E+00    1       37        0        0
     37  6.250E+01 0.000E+00 0.000E+00 0.000E+00 0.000E+00    1       38        0        0
     38  6.250E+01 0.000E+00 0.000E+00 0.000E+00 0.000E+00    1       39        0        0
     39  6.250E+01 0.000E+00 0.000E+00 0.000E+00 0.000E+00    1       40        0        0
     40  6.250E+01 0.000E+00 0.000E+00 0.000E+00 0.000E+00    1       41        0        0
     41  6.250E+01 0.000E+00 0.000E+00 0.000E+00 0.000E+00    1       42        0        0
     42  6.250E+01 0.000E+00 0.000E+00 0.000E+00 0.000E+00    1       43        0        0
     43  6.250E+01 0.000E+00 0.000E+00 0.000E+00 0.000E+00    1       44        0        0
     44  6.250E+01 0.000E+00 0.000E+00 0.000E+00 0.000E+00    1       45        0        0
     45  6.250E+01 0.000E+00 0.000E+00 0.000E+00 0.000E+00    1       46        0        0
     46  6.250E+01 0.000E+00 0.000E+00 0.000E+00 0.000E+00    1       47        0        0
     47  6.250E+01 0.000E+00 0.000E+00 0.000E+00 0.000E+00    1       48        0        0
     48  6.250E+01 0.000E+00 0.000E+00 0.000E+00 0.000E+00    1       49        0        0
     49  6.250E+01 0.000E+00 0.000E+00 0.000E+00 0.000E+00    1       50        0        0
     50  6.250E+01 0.000E+00 0.000E+00 0.000E+00 0.000E+00    1       51        0        0
     51  6.250E+01 0.000E+00 0.000E+00 0.000E+00 0.000E+00    1       52        0        0
     52  6.250E+01 0.000E+00 0.000E+00 0.000E+00 0.000E+00    1       53        0        0
     53  6.250E+01 0.000E+00 0.000E+00 0.000E+00 0.000E+00    1       54        0        0
     54  6.250E+01 0.000E+00 0.000E+00 0.000E+00 0.000E+00    1       55        0        0
     55  6.250E+01 0.000E+00 0.000E+00 0.000E+00 0.000E+00    1       56        0        0
     56  6.250E+01 0.000E+00 0.000E+00 0.000E+00 0.000E+00    1       57        0        0
     57  6.250E+01 0.000E+00 0.000E+00 0.000E+00 0.000E+00    1       58        0        0
     58  6.250E+01 0.000E+00 0.000E+00 0.000E+00 0.000E+00    1       59        0        0
     59  6.250E+01 0.000E+00 0.000E+00 0.000E+00 0.000E+00    1       60        0        0
     60  6.250E+01 0.000E+00 0.000E+00 0.000E+00 0.000E+00    1       61        0        0
     61  6.250E+01 0.000E+00 0.000E+00 0.000E+00 0.000E+00    1       62        0        0
     62  6.250E+01 0.000E+00 0.000E+00 0.000E+00 0.000E+00    1       63        0        0
     63  6.250E+01 0.000E+00 0.000E+00 0.000E+00 0.000E+00    1       64        0        0
     64  6.250E+01 0.000E+00 0.000E+00 0.000E+00 0.000E+00    1       65        0        0
     65  6.250E+01 0.000E+00 0.000E+00 0.000E+00 0.000E+00    1       66        0        0
     66  6.250E+01 0.000E+00 0.000E+00 0.000E+00 0.000E+00    1       67        0        0
     67  6.250E+01 0.000E+00 0.000E+00 0.000E+00 0.000E+00    1       68        0        0
     68  6.250E+01 0.000E+00 0.000E+00 0.000E+00 0.000E+00    1       69        0        0
     69  6.250E+01 0.000E+00 0.000E+00 0.000E+00 0.000E+00    1       70        0        0
     70  6.250E+01 0.000E+00 0.000E+00 0.000E+00 0.000E+00    1       71        0        0
     71  6.250E+01 0.000E+00 0.000E+00 0.000E+00 0.000E+00    1       72        0        0
     72  6.250E+01 0.000E+00 0.000E+00 0.000E+00 0.000E+00    1       73        0        0
     73  6.250E+01 0.000E+00 0.000E+00 0.000E+00 0.000E+00    1       74        0        0
     74  6.250E+01 0.000E+00 0.000E+00 0.000E+00 0.000E+00    1       75        0        0
     75  6.250E+01 0.000E+00 0.000E+00 0.000E+00 0.000E+00    1       76        0        0
     76  6.250E+01 0.000E+00 0.000E+00 0.000E+00 0.000E+00    1       77        0        0
     77  6.250E+01 0.000E+00 0.000E+00 0.000E+00 0.000E+00    1       78        0        0
     78  6.250E+01 0.000E+00 0.000E+00 0.000E+00 0.000E+00    1       79        0        0
     79  6.250E+01 0.000E+00 0.000E+00 0.000E+00 0.000E+00    1       80        0        0
     80  6.250E+01 0.000E+00 0.000E+00 0.000E+00 0.000E+00    1       81        0        0
     81  6.250E+01 0.000E+00 0.000E+00 0.000E+00 0.000E+00    1       82        0        0
     82  6.250E+01 0.000E+00 0.000E+00 0.000E+00 0.000E+00    1       83        0        0
     83  6.250E+01 0.000E+00 0.000E+00 0.000E+00 0.000E+00    1       84        0        0
     84  6.250E+01 0.000E+00 0.000E+00 0.000E+00 0.000E+00    1       85        0        0
     85  6.250E+01 0.000E+00 0.000E+00 0.000E+00 0.000E+00    1       86        0        0
     86  6.250E+01 0.000E+00 0.000E+00 0.000E+00 0.000E+00    1       87        0        0
     87  6.250E+01 0.000E+00 0.000E+00 0.000E+00 0.000E+00    1       88        0        0
     88  6.250E+01 0.000E+00 0.000E+00 0.000E+00 0.000E+00    1       89        0        0
     89  6.250E+01 0.000E+00 0.000E+00 0.000E+00 0.000E+00    1       90        0        0
     90  6.250E+01 0.000E+00 0.000E+00 0.000E+00 0.000E+00    1       91        0        0
     91  6.250E+01 0.000E+00 0.000E+00 0.000E+00 0.000E+00    1       92        0        0
     92  6.250E+01 0.000E+00 0.000E+00 0.000E+00 0.000E+00    1       93        0        0
     93  6.250E+01 0.000E+00 0.000E+00 0.000E+00 0.000E+00    1       94        0        0
     94  6.250E+01 0.000E+00 0.000E+00 0.000E+00 0.000E+00    1       95        0        0
     95  6.250E+01 0.000E+00 0.000E+00 0.000E+00 0.000E+00    1       96        0        0
     96  6.250E+01 0.000E+00 0.000E+00 0.000E+00 0.000E+00    1       97        0        0
     97  6.250E+01 0.000E+00 0.000E+00 0.000E+00 0.000E+00    1       98        0        0
     98  6.250E+01 0.000E+00 0.000E+00 0.000E+00 0.000E+00    1       99        0        0
     99  6.250E+01 0.000E+00 0.000E+00 0.000E+00 0.000E+00    1      100        0        0
    100  6.250E+01 0.000E+00 0.000E+00 0.000E+00 0.000E+00    1      101        0        0
    101  6.250E+01 0.000E+00 0.000E+00 0.000E+00 0.000E+00    1      102        0        0
    102  6.250E+01 0.000E+00 0.000E+00 0.000E+00 0.000E+00    1      103        0        0
    103  6.250E+01 0.000E+00 0.000E+00 0.000E+00 0.000E+00    1      104        0        0
    104  6.250E+01 0.000E+00 0.000E+00 0.000E+00 0.000E+00    1      105        0        0
    105  6.250E+01 0.000E+00 0.000E+00 0.000E+00 0.000E+00    1      106        0        0
    106  6.250E+01 0.000E+00 0.000E+00 0.000E+00 0.000E+00    1      107        0        0
    107  6.250E+01 0.000E+00 0.000E+00 0.000E+00 0.000E+00    1      108        0        0
    108  6.250E+01 0.000E+00 0.000E+00 0.000E+00 0.000E+00    1      109        0        0
    109  6.250E+01 0.000E+00 0.000E+00 0.000E+00 0.000E+00    1      110        0        0
    110  6.250E+01 0.000E+00 0.000E+00 0.000E+00 0.000E+00    1      111        0        0
    111  6.250E+01 0.000E+00 0.000E+00 0.000E+00 0.000E+00    1      112        0        0
    112  6.250E+01 0.000E+00 0.000E+00 0.000E+00 0.000E+00    1      113        0        0
    113  6.250E+01 0.000E+00 0.000E+00 0.000E+00 0.000E+00    1      114        0        0
    114  6.250E+01 0.000E+00 0.000E+00 0.000E+00 0.000E+00    1      115        0        0
    115  6.250E+01 0.000E+00 0.000E+00 0.000E+00 0.000E+00    1      116        0        0
    116  6.250E+01 0.000E+00 0.000E+00 0.000E+00 0.000E+00    1      117        0        0
    117  6.250E+01 0.000E+00 0.000E+00 0.000E+00 0.000E+00    1      118        0        0
    118  6.250E+01 0.000E+00 0.000E+00 0.000E+00 0.000E+00    1      119        0        0
    119  6.250E+01 0.000E+00 0.000E+00 0.000E+00 0.000E+00    1      120        0        0
    120  6.250E+01 0.000E+00 0.000E+00 0.000E+00 0.000E+00    1      121        0        0
    121  6.250E+01 0.000E+00 0.000E+00 0.000E+00 0.000E+00    1      122        0        0
    122  6.250E+01 0.000E+00 0.000E+00 0.000E+00 0.000E+00    1      123        0        0
    123  6.250E+01 0.000E+00 0.000E+00 0.000E+00 0.000E+00    1      124        0        0
    124  6.250E+01 0.000E+00 0.000E+00 0.000E+00 0.000E+00    1      125        0        0
    125  6.250E+01 0.000E+00 0.000E+00 0.000E+00 0.000E+00    1      126        0        0
    126  6.250E+01 0.000E+00 0.000E+00 0.000E+00 0.000E+00    1      127        0        0
    127  6.250E+01 0.000E+00 0.000E+00 0.000E+00 0.000E+00    1      128        0        0
    128  6.250E+01 0.000E+00 0.000E+00 0.000E+00 0.000E+00    1      129        0        0
    129  6.250E+01 0.000E+00 0.000E+00 0.000E+00 0.000E+00    1      130        0        0
    130  6.250E+01 0.000E+00 0.000E+00 0.000E+00 0.000E+00    1      131        0        0
    131  6.250E+01 0.000E+00 0.000E+00 0.000E+00 0.000E+00    1      132        0        0
    132  6.250E+01 0.000E+00 0.000E+00 0.000E+00 0.000E+00    1      133        0        0
    133  6.250E+01 0.000E+00 0.000E+00 0.000E+00 0.000E+00    1      134        0        0
    134  6.250E+01 0.000E+00 0.000E+00 0.000E+00 0.000E+00    1      135        0        0
    135  6.250E+01 0.000E+00 0.000E+00 0.000E+00 0.000E+00    1      136        0        0
    136  6.250E+01 0.000E+00 0.000E+00 0.000E+00 0.000E+00    1      137        0        0
    137  6.250E+01 0.000E+00 0.000E+00 0.000E+00 0.000E+00    1      138        0        0
    138  6.250E+01 0.000E+00 0.000E+00 0.000E+00 0.000E+00    1      139        0        0
    139  6.250E+01 0.000E+00 0.000E+00 0.000E+00 0.000E+00    1      140        0        0
    140  6.250E+01 0.000E+00 0.000E+00 0.000E+00 0.000E+00    1      141        0        0
    141  6.250E+01 0.000E+00 0.000E+00 0.000E+00 0.000E+00    1      142        0        0
    142  6.250E+01 0.000E+00 0.000E+00 0.000E+00 0.000E+00    1      143        0        0
    143  6.250E+01 0.000E+00 0.000E+00 0.000E+00 0.000E+00    1      144        0        0
    144  6.250E+01 0.000E+00 0.000E+00 0.000E+00 0.000E+00    1      145        0        0
    145  6.250E+01 0.000E+00 0.000E+00 0.000E+00 0.000E+00    1      146        0        0
    146  6.250E+01 0.000E+00 0.000E+00 0.000E+00 0.000E+00    1      147        0        0
    147  6.250E+01 0.000E+00 0.000E+00 0.000E+00 0.000E+00    1      148        0        0
    148  6.250E+01 0.000E+00 0.000E+00 0.000E+00 0.000E+00    1      149        0        0
    149  6.250E+01 0.000E+00 0.000E+00 0.000E+00 0.000E+00    1      150        0        0
    150  6.250E+01 0.000E+00 0.000E+00 0.000E+00 0.000E+00    1      151        0        0
    151  6.250E+01 0.000E+00 0.000E+00 0.000E+00 0.000E+00    1      152        0        0
    152  6.250E+01 0.000E+00 0.000E+00 0.000E+00 0.000E+00    1      153        0        0
    153  6.250E+01 0.000E+00 0.000E+00 0.000E+00 0.000E+00    1      154        0        0
    154  6.250E+01 0.000E+00 0.000E+00 0.000E+00 0.000E+00    1      155        0        0
    155  6.250E+01 0.000E+00 0.000E+00 0.000E+00 0.000E+00    1      156        0        0
    156  6.250E+01 0.000E+00 0.000E+00 0.000E+00 0.000E+00    1      157        0        0
    157  6.250E+01 0.000E+00 0.000E+00 0.000E+00 0.000E+00    1      158        0        0
    158  6.250E+01 0.000E+00 0.000E+00 0.000E+00 0.000E+00    1      159        0        0
    159  6.250E+01 0.000E+00 0.000E+00 0.000E+00 0.000E+00    1      160        0        0
    160  6.250E+01 0.000E+00 0.000E+00 0.000E+00 0.000E+00    1      161        0        0


         STREAMBED PROPERTIES AND STREAM DIMENSIONS

 SEGMENT     WIDTH OF STREAM     DEPTH OF STREAM    STREAM ROUGHNESS
    No.     UPPER     LOWER     UPPER     LOWER     CHANNEL      BANK

     1    5.000E+00 5.000E+00                      1.000E-01
     2    5.000E+00 5.000E+00                      1.000E-01
     3    5.000E+00 5.000E+00                      1.000E-01
     4    5.000E+00 5.000E+00                      1.000E-01
     5    5.000E+00 5.000E+00                      1.000E-01
     6    5.000E+00 5.000E+00                      1.000E-01
     7    5.000E+00 5.000E+00                      1.000E-01
     8    5.000E+00 5.000E+00                      1.000E-01
     9    5.000E+00 5.000E+00                      1.000E-01
    10    5.000E+00 5.000E+00                      1.000E-01
    11    5.000E+00 5.000E+00                      1.000E-01
    12    5.000E+00 5.000E+00                      1.000E-01
    13    5.000E+00 5.000E+00                      1.000E-01
    14    5.000E+00 5.000E+00                      1.000E-01
    15    5.000E+00 5.000E+00                      1.000E-01
    16    5.000E+00 5.000E+00                      1.000E-01
    17    5.000E+00 5.000E+00                      1.000E-01
    18    5.000E+00 5.000E+00                      1.000E-01
    19    5.000E+00 5.000E+00                      1.000E-01
    20    5.000E+00 5.000E+00                      1.000E-01
    21    5.000E+00 5.000E+00                      1.000E-01
    22    5.000E+00 5.000E+00                      1.000E-01
    23    5.000E+00 5.000E+00                      1.000E-01
    24    5.000E+00 5.000E+00                      1.000E-01
    25    5.000E+00 5.000E+00                      1.000E-01
    26    5.000E+00 5.000E+00                      1.000E-01
    27    5.000E+00 5.000E+00                      1.000E-01
    28    5.000E+00 5.000E+00                      1.000E-01
    29    5.000E+00 5.000E+00                      1.000E-01
    30    5.000E+00 5.000E+00                      1.000E-01
    31    5.000E+00 5.000E+00                      1.000E-01
    32    5.000E+00 5.000E+00                      1.000E-01
    33    5.000E+00 5.000E+00                      1.000E-01
    34    5.000E+00 5.000E+00                      1.000E-01
    35    5.000E+00 5.000E+00                      1.000E-01
    36    5.000E+00 5.000E+00                      1.000E-01
    37    5.000E+00 5.000E+00                      1.000E-01
    38    5.000E+00 5.000E+00                      1.000E-01
    39    5.000E+00 5.000E+00                      1.000E-01
    40    5.000E+00 5.000E+00                      1.000E-01
    41    5.000E+00 5.000E+00                      1.000E-01
    42    5.000E+00 5.000E+00                      1.000E-01
    43    5.000E+00 5.000E+00                      1.000E-01
    44    5.000E+00 5.000E+00                      1.000E-01
    45    5.000E+00 5.000E+00                      1.000E-01
    46    5.000E+00 5.000E+00                      1.000E-01
    47    5.000E+00 5.000E+00                      1.000E-01
    48    5.000E+00 5.000E+00                      1.000E-01
    49    5.000E+00 5.000E+00                      1.000E-01
    50    5.000E+00 5.000E+00                      1.000E-01
    51    5.000E+00 5.000E+00                      1.000E-01
    52    5.000E+00 5.000E+00                      1.000E-01
    53    5.000E+00 5.000E+00                      1.000E-01
    54    5.000E+00 5.000E+00                      1.000E-01
    55    5.000E+00 5.000E+00                      1.000E-01
    56    5.000E+00 5.000E+00                      1.000E-01
    57    5.000E+00 5.000E+00                      1.000E-01
    58    5.000E+00 5.000E+00                      1.000E-01
    59    5.000E+00 5.000E+00                      1.000E-01
    60    5.000E+00 5.000E+00                      1.000E-01
    61    5.000E+00 5.000E+00                      1.000E-01
    62    5.000E+00 5.000E+00                      1.000E-01
    63    5.000E+00 5.000E+00                      1.000E-01
    64    5.000E+00 5.000E+00                      1.000E-01
    65    5.000E+00 5.000E+00                      1.000E-01
    66    5.000E+00 5.000E+00                      1.000E-01
    67    5.000E+00 5.000E+00                      1.000E-01
    68    5.000E+00 5.000E+00                      1.000E-01
    69    5.000E+00 5.000E+00                      1.000E-01
    70    5.000E+00 5.000E+00                      1.000E-01
    71    5.000E+00 5.000E+00                      1.000E-01
    72    5.000E+00 5.000E+00                      1.000E-01
    73    5.000E+00 5.000E+00                      1.000E-01
    74    5.000E+00 5.000E+00                      1.000E-01
    75    5.000E+00 5.000E+00                      1.000E-01
    76    5.000E+00 5.000E+00                      1.000E-01
    77    5.000E+00 5.000E+00                      1.000E-01
    78    5.000E+00 5.000E+00                      1.000E-01
    79    5.000E+00 5.000E+00                      1.000E-01
    80    5.000E+00 5.000E+00                      1.000E-01
    81    5.000E+00 5.000E+00                      1.000E-01
    82    5.000E+00 5.000E+00                      1.000E-01
    83    5.000E+00 5.000E+00                      1.000E-01
    84    5.000E+00 5.000E+00                      1.000E-01
    85    5.000E+00 5.000E+00                      1.000E-01
    86    5.000E+00 5.000E+00                      1.000E-01
    87    5.000E+00 5.000E+00                      1.000E-01
    88    5.000E+00 5.000E+00                      1.000E-01
    89    5.000E+00 5.000E+00                      1.000E-01
    90    5.000E+00 5.000E+00                      1.000E-01
    91    5.000E+00 5.000E+00                      1.000E-01
    92    5.000E+00 5.000E+00                      1.000E-01
    93    5.000E+00 5.000E+00                      1.000E-01
    94    5.000E+00 5.000E+00                      1.000E-01
    95    5.000E+00 5.000E+00                      1.000E-01
    96    5.000E+00 5.000E+00                      1.000E-01
    97    5.000E+00 5.000E+00                      1.000E-01
    98    5.000E+00 5.000E+00                      1.000E-01
    99    5.000E+00 5.000E+00                      1.000E-01
   100    5.000E+00 5.000E+00                      1.000E-01
   101    5.000E+00 5.000E+00                      1.000E-01
   102    5.000E+00 5.000E+00                      1.000E-01
   103    5.000E+00 5.000E+00                      1.000E-01
   104    5.000E+00 5.000E+00                      1.000E-01
   105    5.000E+00 5.000E+00                      1.000E-01
   106    5.000E+00 5.000E+00                      1.000E-01
   107    5.000E+00 5.000E+00                      1.000E-01
   108    5.000E+00 5.000E+00                      1.000E-01
   109    5.000E+00 5.000E+00                      1.000E-01
   110    5.000E+00 5.000E+00                      1.000E-01
   111    5.000E+00 5.000E+00                      1.000E-01
   112    5.000E+00 5.000E+00                      1.000E-01
   113    5.000E+00 5.000E+00                      1.000E-01
   114    5.000E+00 5.000E+00                      1.000E-01
   115    5.000E+00 5.000E+00                      1.000E-01
   116    5.000E+00 5.000E+00                      1.000E-01
   117    5.000E+00 5.000E+00                      1.000E-01
   118    5.000E+00 5.000E+00                      1.000E-01
   119    5.000E+00 5.000E+00                      1.000E-01
   120    5.000E+00 5.000E+00                      1.000E-01
   121    5.000E+00 5.000E+00                      1.000E-01
   122    5.000E+00 5.000E+00                      1.000E-01
   123    5.000E+00 5.000E+00                      1.000E-01
   124    5.000E+00 5.000E+00                      1.000E-01
   125    5.000E+00 5.000E+00                      1.000E-01
   126    5.000E+00 5.000E+00                      1.000E-01
   127    5.000E+00 5.000E+00                      1.000E-01
   128    5.000E+00 5.000E+00                      1.000E-01
   129    5.000E+00 5.000E+00                      1.000E-01
   130    5.000E+00 5.000E+00                      1.000E-01
   131    5.000E+00 5.000E+00                      1.000E-01
   132    5.000E+00 5.000E+00                      1.000E-01
   133    5.000E+00 5.000E+00                      1.000E-01
   134    5.000E+00 5.000E+00                      1.000E-01
   135    5.000E+00 5.000E+00                      1.000E-01
   136    5.000E+00 5.000E+00                      1.000E-01
   137    5.000E+00 5.000E+00                      1.000E-01
   138    5.000E+00 5.000E+00                      1.000E-01
   139    5.000E+00 5.000E+00                      1.000E-01
   140    5.000E+00 5.000E+00                      1.000E-01
   141    5.000E+00 5.000E+00                      1.000E-01
   142    5.000E+00 5.000E+00                      1.000E-01
   143    5.000E+00 5.000E+00                      1.000E-01
   144    5.000E+00 5.000E+00                      1.000E-01
   145    5.000E+00 5.000E+00                      1.000E-01
   146    5.000E+00 5.000E+00                      1.000E-01
   147    5.000E+00 5.000E+00                      1.000E-01
   148    5.000E+00 5.000E+00                      1.000E-01
   149    5.000E+00 5.000E+00                      1.000E-01
   150    5.000E+00 5.000E+00                      1.000E-01
   151    5.000E+00 5.000E+00                      1.000E-01
   152    5.000E+00 5.000E+00                      1.000E-01
   153    5.000E+00 5.000E+00                      1.000E-01
   154    5.000E+00 5.000E+00                      1.000E-01
   155    5.000E+00 5.000E+00                      1.000E-01
   156    5.000E+00 5.000E+00                      1.000E-01
   157    5.000E+00 5.000E+00                      1.000E-01
   158    5.000E+00 5.000E+00                      1.000E-01
   159    5.000E+00 5.000E+00                      1.000E-01
   160    5.000E+00 5.000E+00                      1.000E-01



 
 SOLVING FOR HEAD 


 OUTER ITERATION SUMMARY
 -----------------------
 BT: Backtracking; LA: Linear Acceleration; UR: Under-relaxation

    Outer-Iteration  Inner-Iteration    Maximum Head Change  Maximum Head Change
        Number           Count               Value              Location
LA         1                7              -0.17511                  3324           GWF-node number
LA         2                5              -0.31330E-02              1388           GWF-node number
LA         3                2               0.14479E-03              2584           GWF-node number
LA         4                1              -0.18176E-04              2796           GWF-node number


     4 CALLS TO SPARSE MATRIX SOLVER PACKAGE  IN FLOW TIME STEP   1 STRESS PERIOD   5

 TOTAL OF       4OUTER ITERATIONS
  MAXIMUM CHANGE FOR EACH ITERATION:
   MAX. CHANGE        NODE  MAX. CHANGE        NODE  MAX. CHANGE        NODE  MAX. CHANGE        NODE  MAX. CHANGE        NODE
 ------------------------------------------------------------------------------------------------------------------------------------
  -0.17511    ,       3324 -0.31330E-02,       1388  0.14479E-03,       2584 -0.18176E-04,       2796

 OUTPUT CONTROL FOR STRESS PERIOD        5   TIME STEP        1
    SAVE HEAD FOR ALL LAYERS
    SAVE BUDGET
 UBDSV1U SAVING "         STORAGE" ON UNIT  50 AT TIME STEP      1, STRESS PERIOD      5
 UBDSV2U SAVING "   CONSTANT HEAD" ON UNIT  50 AT TIME STEP      1, STRESS PERIOD      5
 UBDSV1U SAVING "   FLOW JA FACE " ON UNIT  50 AT TIME STEP      1, STRESS PERIOD      5
 UBDSV4U SAVING "           WELLS" ON UNIT  50 AT TIME STEP      1, STRESS PERIOD      5
 UBDSV4U SAVING " HEAD DEP BOUNDS" ON UNIT  50 AT TIME STEP      1, STRESS PERIOD      5
 UBDSV3U SAVING "        RECHARGE" ON UNIT  50 AT TIME STEP      1, STRESS PERIOD      5
 UBDSV2U SAVING "  STREAM LEAKAGE" ON UNIT  50 AT TIME STEP      1, STRESS PERIOD      5




 HEAD WILL BE SAVED ON UNIT   51 AT END OF TIME STEP   1, STRESS PERIOD    5
1
  VOLUMETRIC BUDGET FOR ENTIRE MODEL AT END OF TIME STEP       1 IN STRESS PERIOD       5
  ---------------------------------------------------------------------------------------

     CUMULATIVE VOLUMES      L**3       RATES FOR THIS TIME STEP      L**3/T
     ------------------                 ------------------------

           IN:                                      IN:
           ---                                      ---
             STORAGE =       12736.2912               STORAGE =         424.5425
       CONSTANT HEAD =           0.0000         CONSTANT HEAD =           0.0000
               WELLS =           0.0000                 WELLS =           0.0000
     HEAD DEP BOUNDS =       20859.1344       HEAD DEP BOUNDS =         132.4736
            RECHARGE =      478037.2549              RECHARGE =        3399.1768
      STREAM LEAKAGE =        1874.2120        STREAM LEAKAGE =           0.0000

            TOTAL IN =      513506.8925              TOTAL IN =        3956.1928

          OUT:                                     OUT:
          ----                                     ----
             STORAGE =      171072.8319               STORAGE =          68.9496
       CONSTANT HEAD =           0.0000         CONSTANT HEAD =           0.0000
               WELLS =      159341.6689                 WELLS =        2114.5798
     HEAD DEP BOUNDS =       97321.4580       HEAD DEP BOUNDS =         852.8631
            RECHARGE =           0.0000              RECHARGE =           0.0000
      STREAM LEAKAGE =       85770.3700        STREAM LEAKAGE =         919.8056

           TOTAL OUT =      513506.3288             TOTAL OUT =        3956.1981

            IN - OUT =           0.5637              IN - OUT =      -5.2896E-03

 PERCENT DISCREPANCY =           0.00     PERCENT DISCREPANCY =          -0.00






          TIME SUMMARY AT END OF TIME STEP         1 IN STRESS PERIOD         5
                    SECONDS     MINUTES      HOURS       DAYS        YEARS
                    -----------------------------------------------------------
   TIME STEP LENGTH 2.59200E+06  43200.      720.00      30.000     8.21355E-02
 STRESS PERIOD TIME 2.59200E+06  43200.      720.00      30.000     8.21355E-02
         TOTAL TIME 1.05408E+07 1.75680E+05  2928.0      122.00     0.33402    
1
1
                            STRESS PERIOD NO.    6, LENGTH =   31.00000    
                            -----------------------------------------------

                              NUMBER OF TIME STEPS =     1

                               MULTIPLIER FOR DELT =     1.000

                            INITIAL TIME STEP SIZE =   31.00000    

 WEL -- WELL PACKAGE, VERSION 7, 5/2/2005 INPUT READ FROM UNIT   20

 WELL NO.      NODE       STRESS FACTOR         
 -----------------------------------------------
      1        3324      -481.8    
      2        3409      -481.8    
      3        3737      -481.8    
      4        3971      -481.8    
      5        4092      -481.8    
      6        4297      -481.8    

      6 WELLS

 GHB -- GENERAL-HEAD BOUNDARY PACKAGE, VERSION 7, 5/2/2005
         INPUT READ FROM UNIT   30

 BOUND NO.     NODE         STAGE         CONDUCTANCE         
 -------------------------------------------------------------
      1        1473       33.50           70.00    
      2        1474       33.50           70.00    
      3        1475       33.50           70.00    
      4        1476       33.50           70.00    
      5        1477       33.50           70.00    
      6        1478       33.50           70.00    
      7        1479       33.50           70.00    
      8        1480       33.50           70.00    
      9        1481       33.50           70.00    
     10        1482       33.50           70.00    
     11        2972       33.50           70.00    
     12        2973       33.50           70.00    
     13        2974       33.50           70.00    
     14        2975       33.50           70.00    
     15        2976       33.50           70.00    
     16        2977       33.50           70.00    
     17        2978       33.50           70.00    
     18        2979       33.50           70.00    
     19        2980       33.50           70.00    
     20        2981       33.50           70.00    
     21        4471       33.50           70.00    
     22        4472       33.50           70.00    
     23        4473       33.50           70.00    
     24        4474       33.50           70.00    
     25        4475       33.50           70.00    
     26        4476       33.50           70.00    
     27        4477       33.50           70.00    
     28        4478       33.50           70.00    
     29        4479       33.50           70.00    
     30        4480       33.50           70.00    
     31        2999       35.50           70.00    
     32        3000       35.50           70.00    
     33        3001       35.50           70.00    
     34        3002       35.50           70.00    
     35        3003       35.50           70.00    
     36        3004       35.50           70.00    
     37        3005       35.50           70.00    
     38        3006       35.50           70.00    
     39        3007       35.50           70.00    
     40        3008       35.50           70.00    
     41        3009       35.50           70.00    
     42        3010       35.50           70.00    
     43        3011       35.50           70.00    
     44        3012       35.50           70.00    
     45        3013       35.50           70.00    
     46        3023       35.50           4.375    
     47        3027       35.50           17.50    
     48        3028       35.50           70.00    
     49        3029       35.50           70.00    
     50        3030       35.50           70.00    

     50 GHB CELLS

 RCH -- RECHARGE PACKAGE, VERSION 7, 5/2/2005 INPUT READ FROM UNIT   31



                           RECHARGE
 READING ON UNIT   31 WITH FORMAT: (1499E15.6)         



 CLASSIFICATION & COUNT OF STREAM SEGMENTS BASED ON SOURCE OF INFLOW:

                HEADWATER     DIVERSION     RECEIVES TRIBUTARY FLOW
                ---------     ---------     -----------------------
                     1              0             159



                    INPUT DATA FOR EACH STREAM SEGMENT
 ---------------------------------------------------------------------------------------------

 SEGMENT    SEG.     INFLOW   OVERLAND   STREAM    STREAM   ICALC  OUTFLOW  DIVERSION PRIORITY
    NO.    LENGTH     RATE     RUNOFF      ET       PPT.    METH.  TO SEG.  FROM SEG.    NO.

      1  6.250E+01 9.715E+03 0.000E+00 0.000E+00 0.000E+00    1        2        0        0
      2  6.250E+01 0.000E+00 0.000E+00 0.000E+00 0.000E+00    1        3        0        0
      3  6.250E+01 0.000E+00 0.000E+00 0.000E+00 0.000E+00    1        4        0        0
      4  6.250E+01 0.000E+00 0.000E+00 0.000E+00 0.000E+00    1        5        0        0
      5  6.250E+01 0.000E+00 0.000E+00 0.000E+00 0.000E+00    1        6        0        0
      6  6.250E+01 0.000E+00 0.000E+00 0.000E+00 0.000E+00    1        7        0        0
      7  6.250E+01 0.000E+00 0.000E+00 0.000E+00 0.000E+00    1        8        0        0
      8  6.250E+01 0.000E+00 0.000E+00 0.000E+00 0.000E+00    1        9        0        0
      9  6.250E+01 0.000E+00 0.000E+00 0.000E+00 0.000E+00    1       10        0        0
     10  6.250E+01 0.000E+00 0.000E+00 0.000E+00 0.000E+00    1       11        0        0
     11  6.250E+01 0.000E+00 0.000E+00 0.000E+00 0.000E+00    1       12        0        0
     12  6.250E+01 0.000E+00 0.000E+00 0.000E+00 0.000E+00    1       13        0        0
     13  6.250E+01 0.000E+00 0.000E+00 0.000E+00 0.000E+00    1       14        0        0
     14  6.250E+01 0.000E+00 0.000E+00 0.000E+00 0.000E+00    1       15        0        0
     15  6.250E+01 0.000E+00 0.000E+00 0.000E+00 0.000E+00    1       16        0        0
     16  6.250E+01 0.000E+00 0.000E+00 0.000E+00 0.000E+00    1       17        0        0
     17  6.250E+01 0.000E+00 0.000E+00 0.000E+00 0.000E+00    1       18        0        0
     18  6.250E+01 0.000E+00 0.000E+00 0.000E+00 0.000E+00    1       19        0        0
     19  6.250E+01 0.000E+00 0.000E+00 0.000E+00 0.000E+00    1       20        0        0
     20  6.250E+01 0.000E+00 0.000E+00 0.000E+00 0.000E+00    1       21        0        0
     21  6.250E+01 0.000E+00 0.000E+00 0.000E+00 0.000E+00    1       22        0        0
     22  6.250E+01 0.000E+00 0.000E+00 0.000E+00 0.000E+00    1       23        0        0
     23  6.250E+01 0.000E+00 0.000E+00 0.000E+00 0.000E+00    1       24        0        0
     24  6.250E+01 0.000E+00 0.000E+00 0.000E+00 0.000E+00    1       25        0        0
     25  6.250E+01 0.000E+00 0.000E+00 0.000E+00 0.000E+00    1       26        0        0
     26  6.250E+01 0.000E+00 0.000E+00 0.000E+00 0.000E+00    1       27        0        0
     27  6.250E+01 0.000E+00 0.000E+00 0.000E+00 0.000E+00    1       28        0        0
     28  6.250E+01 0.000E+00 0.000E+00 0.000E+00 0.000E+00    1       29        0        0
     29  6.250E+01 0.000E+00 0.000E+00 0.000E+00 0.000E+00    1       30        0        0
     30  6.250E+01 0.000E+00 0.000E+00 0.000E+00 0.000E+00    1       31        0        0
     31  6.250E+01 0.000E+00 0.000E+00 0.000E+00 0.000E+00    1       32        0        0
     32  6.250E+01 0.000E+00 0.000E+00 0.000E+00 0.000E+00    1       33        0        0
     33  6.250E+01 0.000E+00 0.000E+00 0.000E+00 0.000E+00    1       34        0        0
     34  6.250E+01 0.000E+00 0.000E+00 0.000E+00 0.000E+00    1       35        0        0
     35  6.250E+01 0.000E+00 0.000E+00 0.000E+00 0.000E+00    1       36        0        0
     36  6.250E+01 0.000E+00 0.000E+00 0.000E+00 0.000E+00    1       37        0        0
     37  6.250E+01 0.000E+00 0.000E+00 0.000E+00 0.000E+00    1       38        0        0
     38  6.250E+01 0.000E+00 0.000E+00 0.000E+00 0.000E+00    1       39        0        0
     39  6.250E+01 0.000E+00 0.000E+00 0.000E+00 0.000E+00    1       40        0        0
     40  6.250E+01 0.000E+00 0.000E+00 0.000E+00 0.000E+00    1       41        0        0
     41  6.250E+01 0.000E+00 0.000E+00 0.000E+00 0.000E+00    1       42        0        0
     42  6.250E+01 0.000E+00 0.000E+00 0.000E+00 0.000E+00    1       43        0        0
     43  6.250E+01 0.000E+00 0.000E+00 0.000E+00 0.000E+00    1       44        0        0
     44  6.250E+01 0.000E+00 0.000E+00 0.000E+00 0.000E+00    1       45        0        0
     45  6.250E+01 0.000E+00 0.000E+00 0.000E+00 0.000E+00    1       46        0        0
     46  6.250E+01 0.000E+00 0.000E+00 0.000E+00 0.000E+00    1       47        0        0
     47  6.250E+01 0.000E+00 0.000E+00 0.000E+00 0.000E+00    1       48        0        0
     48  6.250E+01 0.000E+00 0.000E+00 0.000E+00 0.000E+00    1       49        0        0
     49  6.250E+01 0.000E+00 0.000E+00 0.000E+00 0.000E+00    1       50        0        0
     50  6.250E+01 0.000E+00 0.000E+00 0.000E+00 0.000E+00    1       51        0        0
     51  6.250E+01 0.000E+00 0.000E+00 0.000E+00 0.000E+00    1       52        0        0
     52  6.250E+01 0.000E+00 0.000E+00 0.000E+00 0.000E+00    1       53        0        0
     53  6.250E+01 0.000E+00 0.000E+00 0.000E+00 0.000E+00    1       54        0        0
     54  6.250E+01 0.000E+00 0.000E+00 0.000E+00 0.000E+00    1       55        0        0
     55  6.250E+01 0.000E+00 0.000E+00 0.000E+00 0.000E+00    1       56        0        0
     56  6.250E+01 0.000E+00 0.000E+00 0.000E+00 0.000E+00    1       57        0        0
     57  6.250E+01 0.000E+00 0.000E+00 0.000E+00 0.000E+00    1       58        0        0
     58  6.250E+01 0.000E+00 0.000E+00 0.000E+00 0.000E+00    1       59        0        0
     59  6.250E+01 0.000E+00 0.000E+00 0.000E+00 0.000E+00    1       60        0        0
     60  6.250E+01 0.000E+00 0.000E+00 0.000E+00 0.000E+00    1       61        0        0
     61  6.250E+01 0.000E+00 0.000E+00 0.000E+00 0.000E+00    1       62        0        0
     62  6.250E+01 0.000E+00 0.000E+00 0.000E+00 0.000E+00    1       63        0        0
     63  6.250E+01 0.000E+00 0.000E+00 0.000E+00 0.000E+00    1       64        0        0
     64  6.250E+01 0.000E+00 0.000E+00 0.000E+00 0.000E+00    1       65        0        0
     65  6.250E+01 0.000E+00 0.000E+00 0.000E+00 0.000E+00    1       66        0        0
     66  6.250E+01 0.000E+00 0.000E+00 0.000E+00 0.000E+00    1       67        0        0
     67  6.250E+01 0.000E+00 0.000E+00 0.000E+00 0.000E+00    1       68        0        0
     68  6.250E+01 0.000E+00 0.000E+00 0.000E+00 0.000E+00    1       69        0        0
     69  6.250E+01 0.000E+00 0.000E+00 0.000E+00 0.000E+00    1       70        0        0
     70  6.250E+01 0.000E+00 0.000E+00 0.000E+00 0.000E+00    1       71        0        0
     71  6.250E+01 0.000E+00 0.000E+00 0.000E+00 0.000E+00    1       72        0        0
     72  6.250E+01 0.000E+00 0.000E+00 0.000E+00 0.000E+00    1       73        0        0
     73  6.250E+01 0.000E+00 0.000E+00 0.000E+00 0.000E+00    1       74        0        0
     74  6.250E+01 0.000E+00 0.000E+00 0.000E+00 0.000E+00    1       75        0        0
     75  6.250E+01 0.000E+00 0.000E+00 0.000E+00 0.000E+00    1       76        0        0
     76  6.250E+01 0.000E+00 0.000E+00 0.000E+00 0.000E+00    1       77        0        0
     77  6.250E+01 0.000E+00 0.000E+00 0.000E+00 0.000E+00    1       78        0        0
     78  6.250E+01 0.000E+00 0.000E+00 0.000E+00 0.000E+00    1       79        0        0
     79  6.250E+01 0.000E+00 0.000E+00 0.000E+00 0.000E+00    1       80        0        0
     80  6.250E+01 0.000E+00 0.000E+00 0.000E+00 0.000E+00    1       81        0        0
     81  6.250E+01 0.000E+00 0.000E+00 0.000E+00 0.000E+00    1       82        0        0
     82  6.250E+01 0.000E+00 0.000E+00 0.000E+00 0.000E+00    1       83        0        0
     83  6.250E+01 0.000E+00 0.000E+00 0.000E+00 0.000E+00    1       84        0        0
     84  6.250E+01 0.000E+00 0.000E+00 0.000E+00 0.000E+00    1       85        0        0
     85  6.250E+01 0.000E+00 0.000E+00 0.000E+00 0.000E+00    1       86        0        0
     86  6.250E+01 0.000E+00 0.000E+00 0.000E+00 0.000E+00    1       87        0        0
     87  6.250E+01 0.000E+00 0.000E+00 0.000E+00 0.000E+00    1       88        0        0
     88  6.250E+01 0.000E+00 0.000E+00 0.000E+00 0.000E+00    1       89        0        0
     89  6.250E+01 0.000E+00 0.000E+00 0.000E+00 0.000E+00    1       90        0        0
     90  6.250E+01 0.000E+00 0.000E+00 0.000E+00 0.000E+00    1       91        0        0
     91  6.250E+01 0.000E+00 0.000E+00 0.000E+00 0.000E+00    1       92        0        0
     92  6.250E+01 0.000E+00 0.000E+00 0.000E+00 0.000E+00    1       93        0        0
     93  6.250E+01 0.000E+00 0.000E+00 0.000E+00 0.000E+00    1       94        0        0
     94  6.250E+01 0.000E+00 0.000E+00 0.000E+00 0.000E+00    1       95        0        0
     95  6.250E+01 0.000E+00 0.000E+00 0.000E+00 0.000E+00    1       96        0        0
     96  6.250E+01 0.000E+00 0.000E+00 0.000E+00 0.000E+00    1       97        0        0
     97  6.250E+01 0.000E+00 0.000E+00 0.000E+00 0.000E+00    1       98        0        0
     98  6.250E+01 0.000E+00 0.000E+00 0.000E+00 0.000E+00    1       99        0        0
     99  6.250E+01 0.000E+00 0.000E+00 0.000E+00 0.000E+00    1      100        0        0
    100  6.250E+01 0.000E+00 0.000E+00 0.000E+00 0.000E+00    1      101        0        0
    101  6.250E+01 0.000E+00 0.000E+00 0.000E+00 0.000E+00    1      102        0        0
    102  6.250E+01 0.000E+00 0.000E+00 0.000E+00 0.000E+00    1      103        0        0
    103  6.250E+01 0.000E+00 0.000E+00 0.000E+00 0.000E+00    1      104        0        0
    104  6.250E+01 0.000E+00 0.000E+00 0.000E+00 0.000E+00    1      105        0        0
    105  6.250E+01 0.000E+00 0.000E+00 0.000E+00 0.000E+00    1      106        0        0
    106  6.250E+01 0.000E+00 0.000E+00 0.000E+00 0.000E+00    1      107        0        0
    107  6.250E+01 0.000E+00 0.000E+00 0.000E+00 0.000E+00    1      108        0        0
    108  6.250E+01 0.000E+00 0.000E+00 0.000E+00 0.000E+00    1      109        0        0
    109  6.250E+01 0.000E+00 0.000E+00 0.000E+00 0.000E+00    1      110        0        0
    110  6.250E+01 0.000E+00 0.000E+00 0.000E+00 0.000E+00    1      111        0        0
    111  6.250E+01 0.000E+00 0.000E+00 0.000E+00 0.000E+00    1      112        0        0
    112  6.250E+01 0.000E+00 0.000E+00 0.000E+00 0.000E+00    1      113        0        0
    113  6.250E+01 0.000E+00 0.000E+00 0.000E+00 0.000E+00    1      114        0        0
    114  6.250E+01 0.000E+00 0.000E+00 0.000E+00 0.000E+00    1      115        0        0
    115  6.250E+01 0.000E+00 0.000E+00 0.000E+00 0.000E+00    1      116        0        0
    116  6.250E+01 0.000E+00 0.000E+00 0.000E+00 0.000E+00    1      117        0        0
    117  6.250E+01 0.000E+00 0.000E+00 0.000E+00 0.000E+00    1      118        0        0
    118  6.250E+01 0.000E+00 0.000E+00 0.000E+00 0.000E+00    1      119        0        0
    119  6.250E+01 0.000E+00 0.000E+00 0.000E+00 0.000E+00    1      120        0        0
    120  6.250E+01 0.000E+00 0.000E+00 0.000E+00 0.000E+00    1      121        0        0
    121  6.250E+01 0.000E+00 0.000E+00 0.000E+00 0.000E+00    1      122        0        0
    122  6.250E+01 0.000E+00 0.000E+00 0.000E+00 0.000E+00    1      123        0        0
    123  6.250E+01 0.000E+00 0.000E+00 0.000E+00 0.000E+00    1      124        0        0
    124  6.250E+01 0.000E+00 0.000E+00 0.000E+00 0.000E+00    1      125        0        0
    125  6.250E+01 0.000E+00 0.000E+00 0.000E+00 0.000E+00    1      126        0        0
    126  6.250E+01 0.000E+00 0.000E+00 0.000E+00 0.000E+00    1      127        0        0
    127  6.250E+01 0.000E+00 0.000E+00 0.000E+00 0.000E+00    1      128        0        0
    128  6.250E+01 0.000E+00 0.000E+00 0.000E+00 0.000E+00    1      129        0        0
    129  6.250E+01 0.000E+00 0.000E+00 0.000E+00 0.000E+00    1      130        0        0
    130  6.250E+01 0.000E+00 0.000E+00 0.000E+00 0.000E+00    1      131        0        0
    131  6.250E+01 0.000E+00 0.000E+00 0.000E+00 0.000E+00    1      132        0        0
    132  6.250E+01 0.000E+00 0.000E+00 0.000E+00 0.000E+00    1      133        0        0
    133  6.250E+01 0.000E+00 0.000E+00 0.000E+00 0.000E+00    1      134        0        0
    134  6.250E+01 0.000E+00 0.000E+00 0.000E+00 0.000E+00    1      135        0        0
    135  6.250E+01 0.000E+00 0.000E+00 0.000E+00 0.000E+00    1      136        0        0
    136  6.250E+01 0.000E+00 0.000E+00 0.000E+00 0.000E+00    1      137        0        0
    137  6.250E+01 0.000E+00 0.000E+00 0.000E+00 0.000E+00    1      138        0        0
    138  6.250E+01 0.000E+00 0.000E+00 0.000E+00 0.000E+00    1      139        0        0
    139  6.250E+01 0.000E+00 0.000E+00 0.000E+00 0.000E+00    1      140        0        0
    140  6.250E+01 0.000E+00 0.000E+00 0.000E+00 0.000E+00    1      141        0        0
    141  6.250E+01 0.000E+00 0.000E+00 0.000E+00 0.000E+00    1      142        0        0
    142  6.250E+01 0.000E+00 0.000E+00 0.000E+00 0.000E+00    1      143        0        0
    143  6.250E+01 0.000E+00 0.000E+00 0.000E+00 0.000E+00    1      144        0        0
    144  6.250E+01 0.000E+00 0.000E+00 0.000E+00 0.000E+00    1      145        0        0
    145  6.250E+01 0.000E+00 0.000E+00 0.000E+00 0.000E+00    1      146        0        0
    146  6.250E+01 0.000E+00 0.000E+00 0.000E+00 0.000E+00    1      147        0        0
    147  6.250E+01 0.000E+00 0.000E+00 0.000E+00 0.000E+00    1      148        0        0
    148  6.250E+01 0.000E+00 0.000E+00 0.000E+00 0.000E+00    1      149        0        0
    149  6.250E+01 0.000E+00 0.000E+00 0.000E+00 0.000E+00    1      150        0        0
    150  6.250E+01 0.000E+00 0.000E+00 0.000E+00 0.000E+00    1      151        0        0
    151  6.250E+01 0.000E+00 0.000E+00 0.000E+00 0.000E+00    1      152        0        0
    152  6.250E+01 0.000E+00 0.000E+00 0.000E+00 0.000E+00    1      153        0        0
    153  6.250E+01 0.000E+00 0.000E+00 0.000E+00 0.000E+00    1      154        0        0
    154  6.250E+01 0.000E+00 0.000E+00 0.000E+00 0.000E+00    1      155        0        0
    155  6.250E+01 0.000E+00 0.000E+00 0.000E+00 0.000E+00    1      156        0        0
    156  6.250E+01 0.000E+00 0.000E+00 0.000E+00 0.000E+00    1      157        0        0
    157  6.250E+01 0.000E+00 0.000E+00 0.000E+00 0.000E+00    1      158        0        0
    158  6.250E+01 0.000E+00 0.000E+00 0.000E+00 0.000E+00    1      159        0        0
    159  6.250E+01 0.000E+00 0.000E+00 0.000E+00 0.000E+00    1      160        0        0
    160  6.250E+01 0.000E+00 0.000E+00 0.000E+00 0.000E+00    1      161        0        0


         STREAMBED PROPERTIES AND STREAM DIMENSIONS

 SEGMENT     WIDTH OF STREAM     DEPTH OF STREAM    STREAM ROUGHNESS
    No.     UPPER     LOWER     UPPER     LOWER     CHANNEL      BANK

     1    5.000E+00 5.000E+00                      1.000E-01
     2    5.000E+00 5.000E+00                      1.000E-01
     3    5.000E+00 5.000E+00                      1.000E-01
     4    5.000E+00 5.000E+00                      1.000E-01
     5    5.000E+00 5.000E+00                      1.000E-01
     6    5.000E+00 5.000E+00                      1.000E-01
     7    5.000E+00 5.000E+00                      1.000E-01
     8    5.000E+00 5.000E+00                      1.000E-01
     9    5.000E+00 5.000E+00                      1.000E-01
    10    5.000E+00 5.000E+00                      1.000E-01
    11    5.000E+00 5.000E+00                      1.000E-01
    12    5.000E+00 5.000E+00                      1.000E-01
    13    5.000E+00 5.000E+00                      1.000E-01
    14    5.000E+00 5.000E+00                      1.000E-01
    15    5.000E+00 5.000E+00                      1.000E-01
    16    5.000E+00 5.000E+00                      1.000E-01
    17    5.000E+00 5.000E+00                      1.000E-01
    18    5.000E+00 5.000E+00                      1.000E-01
    19    5.000E+00 5.000E+00                      1.000E-01
    20    5.000E+00 5.000E+00                      1.000E-01
    21    5.000E+00 5.000E+00                      1.000E-01
    22    5.000E+00 5.000E+00                      1.000E-01
    23    5.000E+00 5.000E+00                      1.000E-01
    24    5.000E+00 5.000E+00                      1.000E-01
    25    5.000E+00 5.000E+00                      1.000E-01
    26    5.000E+00 5.000E+00                      1.000E-01
    27    5.000E+00 5.000E+00                      1.000E-01
    28    5.000E+00 5.000E+00                      1.000E-01
    29    5.000E+00 5.000E+00                      1.000E-01
    30    5.000E+00 5.000E+00                      1.000E-01
    31    5.000E+00 5.000E+00                      1.000E-01
    32    5.000E+00 5.000E+00                      1.000E-01
    33    5.000E+00 5.000E+00                      1.000E-01
    34    5.000E+00 5.000E+00                      1.000E-01
    35    5.000E+00 5.000E+00                      1.000E-01
    36    5.000E+00 5.000E+00                      1.000E-01
    37    5.000E+00 5.000E+00                      1.000E-01
    38    5.000E+00 5.000E+00                      1.000E-01
    39    5.000E+00 5.000E+00                      1.000E-01
    40    5.000E+00 5.000E+00                      1.000E-01
    41    5.000E+00 5.000E+00                      1.000E-01
    42    5.000E+00 5.000E+00                      1.000E-01
    43    5.000E+00 5.000E+00                      1.000E-01
    44    5.000E+00 5.000E+00                      1.000E-01
    45    5.000E+00 5.000E+00                      1.000E-01
    46    5.000E+00 5.000E+00                      1.000E-01
    47    5.000E+00 5.000E+00                      1.000E-01
    48    5.000E+00 5.000E+00                      1.000E-01
    49    5.000E+00 5.000E+00                      1.000E-01
    50    5.000E+00 5.000E+00                      1.000E-01
    51    5.000E+00 5.000E+00                      1.000E-01
    52    5.000E+00 5.000E+00                      1.000E-01
    53    5.000E+00 5.000E+00                      1.000E-01
    54    5.000E+00 5.000E+00                      1.000E-01
    55    5.000E+00 5.000E+00                      1.000E-01
    56    5.000E+00 5.000E+00                      1.000E-01
    57    5.000E+00 5.000E+00                      1.000E-01
    58    5.000E+00 5.000E+00                      1.000E-01
    59    5.000E+00 5.000E+00                      1.000E-01
    60    5.000E+00 5.000E+00                      1.000E-01
    61    5.000E+00 5.000E+00                      1.000E-01
    62    5.000E+00 5.000E+00                      1.000E-01
    63    5.000E+00 5.000E+00                      1.000E-01
    64    5.000E+00 5.000E+00                      1.000E-01
    65    5.000E+00 5.000E+00                      1.000E-01
    66    5.000E+00 5.000E+00                      1.000E-01
    67    5.000E+00 5.000E+00                      1.000E-01
    68    5.000E+00 5.000E+00                      1.000E-01
    69    5.000E+00 5.000E+00                      1.000E-01
    70    5.000E+00 5.000E+00                      1.000E-01
    71    5.000E+00 5.000E+00                      1.000E-01
    72    5.000E+00 5.000E+00                      1.000E-01
    73    5.000E+00 5.000E+00                      1.000E-01
    74    5.000E+00 5.000E+00                      1.000E-01
    75    5.000E+00 5.000E+00                      1.000E-01
    76    5.000E+00 5.000E+00                      1.000E-01
    77    5.000E+00 5.000E+00                      1.000E-01
    78    5.000E+00 5.000E+00                      1.000E-01
    79    5.000E+00 5.000E+00                      1.000E-01
    80    5.000E+00 5.000E+00                      1.000E-01
    81    5.000E+00 5.000E+00                      1.000E-01
    82    5.000E+00 5.000E+00                      1.000E-01
    83    5.000E+00 5.000E+00                      1.000E-01
    84    5.000E+00 5.000E+00                      1.000E-01
    85    5.000E+00 5.000E+00                      1.000E-01
    86    5.000E+00 5.000E+00                      1.000E-01
    87    5.000E+00 5.000E+00                      1.000E-01
    88    5.000E+00 5.000E+00                      1.000E-01
    89    5.000E+00 5.000E+00                      1.000E-01
    90    5.000E+00 5.000E+00                      1.000E-01
    91    5.000E+00 5.000E+00                      1.000E-01
    92    5.000E+00 5.000E+00                      1.000E-01
    93    5.000E+00 5.000E+00                      1.000E-01
    94    5.000E+00 5.000E+00                      1.000E-01
    95    5.000E+00 5.000E+00                      1.000E-01
    96    5.000E+00 5.000E+00                      1.000E-01
    97    5.000E+00 5.000E+00                      1.000E-01
    98    5.000E+00 5.000E+00                      1.000E-01
    99    5.000E+00 5.000E+00                      1.000E-01
   100    5.000E+00 5.000E+00                      1.000E-01
   101    5.000E+00 5.000E+00                      1.000E-01
   102    5.000E+00 5.000E+00                      1.000E-01
   103    5.000E+00 5.000E+00                      1.000E-01
   104    5.000E+00 5.000E+00                      1.000E-01
   105    5.000E+00 5.000E+00                      1.000E-01
   106    5.000E+00 5.000E+00                      1.000E-01
   107    5.000E+00 5.000E+00                      1.000E-01
   108    5.000E+00 5.000E+00                      1.000E-01
   109    5.000E+00 5.000E+00                      1.000E-01
   110    5.000E+00 5.000E+00                      1.000E-01
   111    5.000E+00 5.000E+00                      1.000E-01
   112    5.000E+00 5.000E+00                      1.000E-01
   113    5.000E+00 5.000E+00                      1.000E-01
   114    5.000E+00 5.000E+00                      1.000E-01
   115    5.000E+00 5.000E+00                      1.000E-01
   116    5.000E+00 5.000E+00                      1.000E-01
   117    5.000E+00 5.000E+00                      1.000E-01
   118    5.000E+00 5.000E+00                      1.000E-01
   119    5.000E+00 5.000E+00                      1.000E-01
   120    5.000E+00 5.000E+00                      1.000E-01
   121    5.000E+00 5.000E+00                      1.000E-01
   122    5.000E+00 5.000E+00                      1.000E-01
   123    5.000E+00 5.000E+00                      1.000E-01
   124    5.000E+00 5.000E+00                      1.000E-01
   125    5.000E+00 5.000E+00                      1.000E-01
   126    5.000E+00 5.000E+00                      1.000E-01
   127    5.000E+00 5.000E+00                      1.000E-01
   128    5.000E+00 5.000E+00                      1.000E-01
   129    5.000E+00 5.000E+00                      1.000E-01
   130    5.000E+00 5.000E+00                      1.000E-01
   131    5.000E+00 5.000E+00                      1.000E-01
   132    5.000E+00 5.000E+00                      1.000E-01
   133    5.000E+00 5.000E+00                      1.000E-01
   134    5.000E+00 5.000E+00                      1.000E-01
   135    5.000E+00 5.000E+00                      1.000E-01
   136    5.000E+00 5.000E+00                      1.000E-01
   137    5.000E+00 5.000E+00                      1.000E-01
   138    5.000E+00 5.000E+00                      1.000E-01
   139    5.000E+00 5.000E+00                      1.000E-01
   140    5.000E+00 5.000E+00                      1.000E-01
   141    5.000E+00 5.000E+00                      1.000E-01
   142    5.000E+00 5.000E+00                      1.000E-01
   143    5.000E+00 5.000E+00                      1.000E-01
   144    5.000E+00 5.000E+00                      1.000E-01
   145    5.000E+00 5.000E+00                      1.000E-01
   146    5.000E+00 5.000E+00                      1.000E-01
   147    5.000E+00 5.000E+00                      1.000E-01
   148    5.000E+00 5.000E+00                      1.000E-01
   149    5.000E+00 5.000E+00                      1.000E-01
   150    5.000E+00 5.000E+00                      1.000E-01
   151    5.000E+00 5.000E+00                      1.000E-01
   152    5.000E+00 5.000E+00                      1.000E-01
   153    5.000E+00 5.000E+00                      1.000E-01
   154    5.000E+00 5.000E+00                      1.000E-01
   155    5.000E+00 5.000E+00                      1.000E-01
   156    5.000E+00 5.000E+00                      1.000E-01
   157    5.000E+00 5.000E+00                      1.000E-01
   158    5.000E+00 5.000E+00                      1.000E-01
   159    5.000E+00 5.000E+00                      1.000E-01
   160    5.000E+00 5.000E+00                      1.000E-01



 
 SOLVING FOR HEAD 


 OUTER ITERATION SUMMARY
 -----------------------
 BT: Backtracking; LA: Linear Acceleration; UR: Under-relaxation

    Outer-Iteration  Inner-Iteration    Maximum Head Change  Maximum Head Change
        Number           Count               Value              Location
LA         1                8              -0.27588                  3324           GWF-node number
LA         2                5              -0.78157E-02              1388           GWF-node number
LA         3                2              -0.33273E-03              1425           GWF-node number
LA         4                1              -0.22498E-04              2591           GWF-node number


     4 CALLS TO SPARSE MATRIX SOLVER PACKAGE  IN FLOW TIME STEP   1 STRESS PERIOD   6

 TOTAL OF       4OUTER ITERATIONS
  MAXIMUM CHANGE FOR EACH ITERATION:
   MAX. CHANGE        NODE  MAX. CHANGE        NODE  MAX. CHANGE        NODE  MAX. CHANGE        NODE  MAX. CHANGE        NODE
 ------------------------------------------------------------------------------------------------------------------------------------
  -0.27588    ,       3324 -0.78157E-02,       1388 -0.33273E-03,       1425 -0.22498E-04,       2591

 OUTPUT CONTROL FOR STRESS PERIOD        6   TIME STEP        1
    SAVE HEAD FOR ALL LAYERS
    SAVE BUDGET
 UBDSV1U SAVING "         STORAGE" ON UNIT  50 AT TIME STEP      1, STRESS PERIOD      6
 UBDSV2U SAVING "   CONSTANT HEAD" ON UNIT  50 AT TIME STEP      1, STRESS PERIOD      6
 UBDSV1U SAVING "   FLOW JA FACE " ON UNIT  50 AT TIME STEP      1, STRESS PERIOD      6
 UBDSV4U SAVING "           WELLS" ON UNIT  50 AT TIME STEP      1, STRESS PERIOD      6
 UBDSV4U SAVING " HEAD DEP BOUNDS" ON UNIT  50 AT TIME STEP      1, STRESS PERIOD      6
 UBDSV3U SAVING "        RECHARGE" ON UNIT  50 AT TIME STEP      1, STRESS PERIOD      6
 UBDSV2U SAVING "  STREAM LEAKAGE" ON UNIT  50 AT TIME STEP      1, STRESS PERIOD      6




 HEAD WILL BE SAVED ON UNIT   51 AT END OF TIME STEP   1, STRESS PERIOD    6
1
  VOLUMETRIC BUDGET FOR ENTIRE MODEL AT END OF TIME STEP       1 IN STRESS PERIOD       6
  ---------------------------------------------------------------------------------------

     CUMULATIVE VOLUMES      L**3       RATES FOR THIS TIME STEP      L**3/T
     ------------------                 ------------------------

           IN:                                      IN:
           ---                                      ---
             STORAGE =       65169.6358               STORAGE =        1691.3982
       CONSTANT HEAD =           0.0000         CONSTANT HEAD =           0.0000
               WELLS =           0.0000                 WELLS =           0.0000
     HEAD DEP BOUNDS =       26857.3175       HEAD DEP BOUNDS =         193.4898
            RECHARGE =      556001.4980              RECHARGE =        2514.9756
      STREAM LEAKAGE =        1874.2120        STREAM LEAKAGE =           0.0000

            TOTAL IN =      649902.6634              TOTAL IN =        4399.8636

          OUT:                                     OUT:
          ----                                     ----
             STORAGE =      171072.8319               STORAGE =           0.0000
       CONSTANT HEAD =           0.0000         CONSTANT HEAD =           0.0000
               WELLS =      248960.2244                 WELLS =        2890.9211
     HEAD DEP BOUNDS =      119242.0795       HEAD DEP BOUNDS =         707.1168
            RECHARGE =           0.0000              RECHARGE =           0.0000
      STREAM LEAKAGE =      110627.3881        STREAM LEAKAGE =         801.8393

           TOTAL OUT =      649902.5238             TOTAL OUT =        4399.8773

            IN - OUT =           0.1396              IN - OUT =      -1.3682E-02

 PERCENT DISCREPANCY =           0.00     PERCENT DISCREPANCY =          -0.00






          TIME SUMMARY AT END OF TIME STEP         1 IN STRESS PERIOD         6
                    SECONDS     MINUTES      HOURS       DAYS        YEARS
                    -----------------------------------------------------------
   TIME STEP LENGTH 2.67840E+06  44640.      744.00      31.000     8.48734E-02
 STRESS PERIOD TIME 2.67840E+06  44640.      744.00      31.000     8.48734E-02
         TOTAL TIME 1.32192E+07 2.20320E+05  3672.0      153.00     0.41889    
1
1
                            STRESS PERIOD NO.    7, LENGTH =   30.00000    
                            -----------------------------------------------

                              NUMBER OF TIME STEPS =     1

                               MULTIPLIER FOR DELT =     1.000

                            INITIAL TIME STEP SIZE =   30.00000    

 WEL -- WELL PACKAGE, VERSION 7, 5/2/2005 INPUT READ FROM UNIT   20

 WELL NO.      NODE       STRESS FACTOR         
 -----------------------------------------------
      1        3324      -580.1    
      2        3409      -580.1    
      3        3737      -580.1    
      4        3971      -580.1    
      5        4092      -580.1    
      6        4297      -580.1    

      6 WELLS

 GHB -- GENERAL-HEAD BOUNDARY PACKAGE, VERSION 7, 5/2/2005
         INPUT READ FROM UNIT   30

 BOUND NO.     NODE         STAGE         CONDUCTANCE         
 -------------------------------------------------------------
      1        1473       33.50           70.00    
      2        1474       33.50           70.00    
      3        1475       33.50           70.00    
      4        1476       33.50           70.00    
      5        1477       33.50           70.00    
      6        1478       33.50           70.00    
      7        1479       33.50           70.00    
      8        1480       33.50           70.00    
      9        1481       33.50           70.00    
     10        1482       33.50           70.00    
     11        2972       33.50           70.00    
     12        2973       33.50           70.00    
     13        2974       33.50           70.00    
     14        2975       33.50           70.00    
     15        2976       33.50           70.00    
     16        2977       33.50           70.00    
     17        2978       33.50           70.00    
     18        2979       33.50           70.00    
     19        2980       33.50           70.00    
     20        2981       33.50           70.00    
     21        4471       33.50           70.00    
     22        4472       33.50           70.00    
     23        4473       33.50           70.00    
     24        4474       33.50           70.00    
     25        4475       33.50           70.00    
     26        4476       33.50           70.00    
     27        4477       33.50           70.00    
     28        4478       33.50           70.00    
     29        4479       33.50           70.00    
     30        4480       33.50           70.00    
     31        2999       35.50           70.00    
     32        3000       35.50           70.00    
     33        3001       35.50           70.00    
     34        3002       35.50           70.00    
     35        3003       35.50           70.00    
     36        3004       35.50           70.00    
     37        3005       35.50           70.00    
     38        3006       35.50           70.00    
     39        3007       35.50           70.00    
     40        3008       35.50           70.00    
     41        3009       35.50           70.00    
     42        3010       35.50           70.00    
     43        3011       35.50           70.00    
     44        3012       35.50           70.00    
     45        3013       35.50           70.00    
     46        3023       35.50           4.375    
     47        3027       35.50           17.50    
     48        3028       35.50           70.00    
     49        3029       35.50           70.00    
     50        3030       35.50           70.00    

     50 GHB CELLS

 RCH -- RECHARGE PACKAGE, VERSION 7, 5/2/2005 INPUT READ FROM UNIT   31



                           RECHARGE
 READING ON UNIT   31 WITH FORMAT: (1499E15.6)         



 CLASSIFICATION & COUNT OF STREAM SEGMENTS BASED ON SOURCE OF INFLOW:

                HEADWATER     DIVERSION     RECEIVES TRIBUTARY FLOW
                ---------     ---------     -----------------------
                     1              0             159



                    INPUT DATA FOR EACH STREAM SEGMENT
 ---------------------------------------------------------------------------------------------

 SEGMENT    SEG.     INFLOW   OVERLAND   STREAM    STREAM   ICALC  OUTFLOW  DIVERSION PRIORITY
    NO.    LENGTH     RATE     RUNOFF      ET       PPT.    METH.  TO SEG.  FROM SEG.    NO.

      1  6.250E+01 6.382E+03 0.000E+00 0.000E+00 0.000E+00    1        2        0        0
      2  6.250E+01 0.000E+00 0.000E+00 0.000E+00 0.000E+00    1        3        0        0
      3  6.250E+01 0.000E+00 0.000E+00 0.000E+00 0.000E+00    1        4        0        0
      4  6.250E+01 0.000E+00 0.000E+00 0.000E+00 0.000E+00    1        5        0        0
      5  6.250E+01 0.000E+00 0.000E+00 0.000E+00 0.000E+00    1        6        0        0
      6  6.250E+01 0.000E+00 0.000E+00 0.000E+00 0.000E+00    1        7        0        0
      7  6.250E+01 0.000E+00 0.000E+00 0.000E+00 0.000E+00    1        8        0        0
      8  6.250E+01 0.000E+00 0.000E+00 0.000E+00 0.000E+00    1        9        0        0
      9  6.250E+01 0.000E+00 0.000E+00 0.000E+00 0.000E+00    1       10        0        0
     10  6.250E+01 0.000E+00 0.000E+00 0.000E+00 0.000E+00    1       11        0        0
     11  6.250E+01 0.000E+00 0.000E+00 0.000E+00 0.000E+00    1       12        0        0
     12  6.250E+01 0.000E+00 0.000E+00 0.000E+00 0.000E+00    1       13        0        0
     13  6.250E+01 0.000E+00 0.000E+00 0.000E+00 0.000E+00    1       14        0        0
     14  6.250E+01 0.000E+00 0.000E+00 0.000E+00 0.000E+00    1       15        0        0
     15  6.250E+01 0.000E+00 0.000E+00 0.000E+00 0.000E+00    1       16        0        0
     16  6.250E+01 0.000E+00 0.000E+00 0.000E+00 0.000E+00    1       17        0        0
     17  6.250E+01 0.000E+00 0.000E+00 0.000E+00 0.000E+00    1       18        0        0
     18  6.250E+01 0.000E+00 0.000E+00 0.000E+00 0.000E+00    1       19        0        0
     19  6.250E+01 0.000E+00 0.000E+00 0.000E+00 0.000E+00    1       20        0        0
     20  6.250E+01 0.000E+00 0.000E+00 0.000E+00 0.000E+00    1       21        0        0
     21  6.250E+01 0.000E+00 0.000E+00 0.000E+00 0.000E+00    1       22        0        0
     22  6.250E+01 0.000E+00 0.000E+00 0.000E+00 0.000E+00    1       23        0        0
     23  6.250E+01 0.000E+00 0.000E+00 0.000E+00 0.000E+00    1       24        0        0
     24  6.250E+01 0.000E+00 0.000E+00 0.000E+00 0.000E+00    1       25        0        0
     25  6.250E+01 0.000E+00 0.000E+00 0.000E+00 0.000E+00    1       26        0        0
     26  6.250E+01 0.000E+00 0.000E+00 0.000E+00 0.000E+00    1       27        0        0
     27  6.250E+01 0.000E+00 0.000E+00 0.000E+00 0.000E+00    1       28        0        0
     28  6.250E+01 0.000E+00 0.000E+00 0.000E+00 0.000E+00    1       29        0        0
     29  6.250E+01 0.000E+00 0.000E+00 0.000E+00 0.000E+00    1       30        0        0
     30  6.250E+01 0.000E+00 0.000E+00 0.000E+00 0.000E+00    1       31        0        0
     31  6.250E+01 0.000E+00 0.000E+00 0.000E+00 0.000E+00    1       32        0        0
     32  6.250E+01 0.000E+00 0.000E+00 0.000E+00 0.000E+00    1       33        0        0
     33  6.250E+01 0.000E+00 0.000E+00 0.000E+00 0.000E+00    1       34        0        0
     34  6.250E+01 0.000E+00 0.000E+00 0.000E+00 0.000E+00    1       35        0        0
     35  6.250E+01 0.000E+00 0.000E+00 0.000E+00 0.000E+00    1       36        0        0
     36  6.250E+01 0.000E+00 0.000E+00 0.000E+00 0.000E+00    1       37        0        0
     37  6.250E+01 0.000E+00 0.000E+00 0.000E+00 0.000E+00    1       38        0        0
     38  6.250E+01 0.000E+00 0.000E+00 0.000E+00 0.000E+00    1       39        0        0
     39  6.250E+01 0.000E+00 0.000E+00 0.000E+00 0.000E+00    1       40        0        0
     40  6.250E+01 0.000E+00 0.000E+00 0.000E+00 0.000E+00    1       41        0        0
     41  6.250E+01 0.000E+00 0.000E+00 0.000E+00 0.000E+00    1       42        0        0
     42  6.250E+01 0.000E+00 0.000E+00 0.000E+00 0.000E+00    1       43        0        0
     43  6.250E+01 0.000E+00 0.000E+00 0.000E+00 0.000E+00    1       44        0        0
     44  6.250E+01 0.000E+00 0.000E+00 0.000E+00 0.000E+00    1       45        0        0
     45  6.250E+01 0.000E+00 0.000E+00 0.000E+00 0.000E+00    1       46        0        0
     46  6.250E+01 0.000E+00 0.000E+00 0.000E+00 0.000E+00    1       47        0        0
     47  6.250E+01 0.000E+00 0.000E+00 0.000E+00 0.000E+00    1       48        0        0
     48  6.250E+01 0.000E+00 0.000E+00 0.000E+00 0.000E+00    1       49        0        0
     49  6.250E+01 0.000E+00 0.000E+00 0.000E+00 0.000E+00    1       50        0        0
     50  6.250E+01 0.000E+00 0.000E+00 0.000E+00 0.000E+00    1       51        0        0
     51  6.250E+01 0.000E+00 0.000E+00 0.000E+00 0.000E+00    1       52        0        0
     52  6.250E+01 0.000E+00 0.000E+00 0.000E+00 0.000E+00    1       53        0        0
     53  6.250E+01 0.000E+00 0.000E+00 0.000E+00 0.000E+00    1       54        0        0
     54  6.250E+01 0.000E+00 0.000E+00 0.000E+00 0.000E+00    1       55        0        0
     55  6.250E+01 0.000E+00 0.000E+00 0.000E+00 0.000E+00    1       56        0        0
     56  6.250E+01 0.000E+00 0.000E+00 0.000E+00 0.000E+00    1       57        0        0
     57  6.250E+01 0.000E+00 0.000E+00 0.000E+00 0.000E+00    1       58        0        0
     58  6.250E+01 0.000E+00 0.000E+00 0.000E+00 0.000E+00    1       59        0        0
     59  6.250E+01 0.000E+00 0.000E+00 0.000E+00 0.000E+00    1       60        0        0
     60  6.250E+01 0.000E+00 0.000E+00 0.000E+00 0.000E+00    1       61        0        0
     61  6.250E+01 0.000E+00 0.000E+00 0.000E+00 0.000E+00    1       62        0        0
     62  6.250E+01 0.000E+00 0.000E+00 0.000E+00 0.000E+00    1       63        0        0
     63  6.250E+01 0.000E+00 0.000E+00 0.000E+00 0.000E+00    1       64        0        0
     64  6.250E+01 0.000E+00 0.000E+00 0.000E+00 0.000E+00    1       65        0        0
     65  6.250E+01 0.000E+00 0.000E+00 0.000E+00 0.000E+00    1       66        0        0
     66  6.250E+01 0.000E+00 0.000E+00 0.000E+00 0.000E+00    1       67        0        0
     67  6.250E+01 0.000E+00 0.000E+00 0.000E+00 0.000E+00    1       68        0        0
     68  6.250E+01 0.000E+00 0.000E+00 0.000E+00 0.000E+00    1       69        0        0
     69  6.250E+01 0.000E+00 0.000E+00 0.000E+00 0.000E+00    1       70        0        0
     70  6.250E+01 0.000E+00 0.000E+00 0.000E+00 0.000E+00    1       71        0        0
     71  6.250E+01 0.000E+00 0.000E+00 0.000E+00 0.000E+00    1       72        0        0
     72  6.250E+01 0.000E+00 0.000E+00 0.000E+00 0.000E+00    1       73        0        0
     73  6.250E+01 0.000E+00 0.000E+00 0.000E+00 0.000E+00    1       74        0        0
     74  6.250E+01 0.000E+00 0.000E+00 0.000E+00 0.000E+00    1       75        0        0
     75  6.250E+01 0.000E+00 0.000E+00 0.000E+00 0.000E+00    1       76        0        0
     76  6.250E+01 0.000E+00 0.000E+00 0.000E+00 0.000E+00    1       77        0        0
     77  6.250E+01 0.000E+00 0.000E+00 0.000E+00 0.000E+00    1       78        0        0
     78  6.250E+01 0.000E+00 0.000E+00 0.000E+00 0.000E+00    1       79        0        0
     79  6.250E+01 0.000E+00 0.000E+00 0.000E+00 0.000E+00    1       80        0        0
     80  6.250E+01 0.000E+00 0.000E+00 0.000E+00 0.000E+00    1       81        0        0
     81  6.250E+01 0.000E+00 0.000E+00 0.000E+00 0.000E+00    1       82        0        0
     82  6.250E+01 0.000E+00 0.000E+00 0.000E+00 0.000E+00    1       83        0        0
     83  6.250E+01 0.000E+00 0.000E+00 0.000E+00 0.000E+00    1       84        0        0
     84  6.250E+01 0.000E+00 0.000E+00 0.000E+00 0.000E+00    1       85        0        0
     85  6.250E+01 0.000E+00 0.000E+00 0.000E+00 0.000E+00    1       86        0        0
     86  6.250E+01 0.000E+00 0.000E+00 0.000E+00 0.000E+00    1       87        0        0
     87  6.250E+01 0.000E+00 0.000E+00 0.000E+00 0.000E+00    1       88        0        0
     88  6.250E+01 0.000E+00 0.000E+00 0.000E+00 0.000E+00    1       89        0        0
     89  6.250E+01 0.000E+00 0.000E+00 0.000E+00 0.000E+00    1       90        0        0
     90  6.250E+01 0.000E+00 0.000E+00 0.000E+00 0.000E+00    1       91        0        0
     91  6.250E+01 0.000E+00 0.000E+00 0.000E+00 0.000E+00    1       92        0        0
     92  6.250E+01 0.000E+00 0.000E+00 0.000E+00 0.000E+00    1       93        0        0
     93  6.250E+01 0.000E+00 0.000E+00 0.000E+00 0.000E+00    1       94        0        0
     94  6.250E+01 0.000E+00 0.000E+00 0.000E+00 0.000E+00    1       95        0        0
     95  6.250E+01 0.000E+00 0.000E+00 0.000E+00 0.000E+00    1       96        0        0
     96  6.250E+01 0.000E+00 0.000E+00 0.000E+00 0.000E+00    1       97        0        0
     97  6.250E+01 0.000E+00 0.000E+00 0.000E+00 0.000E+00    1       98        0        0
     98  6.250E+01 0.000E+00 0.000E+00 0.000E+00 0.000E+00    1       99        0        0
     99  6.250E+01 0.000E+00 0.000E+00 0.000E+00 0.000E+00    1      100        0        0
    100  6.250E+01 0.000E+00 0.000E+00 0.000E+00 0.000E+00    1      101        0        0
    101  6.250E+01 0.000E+00 0.000E+00 0.000E+00 0.000E+00    1      102        0        0
    102  6.250E+01 0.000E+00 0.000E+00 0.000E+00 0.000E+00    1      103        0        0
    103  6.250E+01 0.000E+00 0.000E+00 0.000E+00 0.000E+00    1      104        0        0
    104  6.250E+01 0.000E+00 0.000E+00 0.000E+00 0.000E+00    1      105        0        0
    105  6.250E+01 0.000E+00 0.000E+00 0.000E+00 0.000E+00    1      106        0        0
    106  6.250E+01 0.000E+00 0.000E+00 0.000E+00 0.000E+00    1      107        0        0
    107  6.250E+01 0.000E+00 0.000E+00 0.000E+00 0.000E+00    1      108        0        0
    108  6.250E+01 0.000E+00 0.000E+00 0.000E+00 0.000E+00    1      109        0        0
    109  6.250E+01 0.000E+00 0.000E+00 0.000E+00 0.000E+00    1      110        0        0
    110  6.250E+01 0.000E+00 0.000E+00 0.000E+00 0.000E+00    1      111        0        0
    111  6.250E+01 0.000E+00 0.000E+00 0.000E+00 0.000E+00    1      112        0        0
    112  6.250E+01 0.000E+00 0.000E+00 0.000E+00 0.000E+00    1      113        0        0
    113  6.250E+01 0.000E+00 0.000E+00 0.000E+00 0.000E+00    1      114        0        0
    114  6.250E+01 0.000E+00 0.000E+00 0.000E+00 0.000E+00    1      115        0        0
    115  6.250E+01 0.000E+00 0.000E+00 0.000E+00 0.000E+00    1      116        0        0
    116  6.250E+01 0.000E+00 0.000E+00 0.000E+00 0.000E+00    1      117        0        0
    117  6.250E+01 0.000E+00 0.000E+00 0.000E+00 0.000E+00    1      118        0        0
    118  6.250E+01 0.000E+00 0.000E+00 0.000E+00 0.000E+00    1      119        0        0
    119  6.250E+01 0.000E+00 0.000E+00 0.000E+00 0.000E+00    1      120        0        0
    120  6.250E+01 0.000E+00 0.000E+00 0.000E+00 0.000E+00    1      121        0        0
    121  6.250E+01 0.000E+00 0.000E+00 0.000E+00 0.000E+00    1      122        0        0
    122  6.250E+01 0.000E+00 0.000E+00 0.000E+00 0.000E+00    1      123        0        0
    123  6.250E+01 0.000E+00 0.000E+00 0.000E+00 0.000E+00    1      124        0        0
    124  6.250E+01 0.000E+00 0.000E+00 0.000E+00 0.000E+00    1      125        0        0
    125  6.250E+01 0.000E+00 0.000E+00 0.000E+00 0.000E+00    1      126        0        0
    126  6.250E+01 0.000E+00 0.000E+00 0.000E+00 0.000E+00    1      127        0        0
    127  6.250E+01 0.000E+00 0.000E+00 0.000E+00 0.000E+00    1      128        0        0
    128  6.250E+01 0.000E+00 0.000E+00 0.000E+00 0.000E+00    1      129        0        0
    129  6.250E+01 0.000E+00 0.000E+00 0.000E+00 0.000E+00    1      130        0        0
    130  6.250E+01 0.000E+00 0.000E+00 0.000E+00 0.000E+00    1      131        0        0
    131  6.250E+01 0.000E+00 0.000E+00 0.000E+00 0.000E+00    1      132        0        0
    132  6.250E+01 0.000E+00 0.000E+00 0.000E+00 0.000E+00    1      133        0        0
    133  6.250E+01 0.000E+00 0.000E+00 0.000E+00 0.000E+00    1      134        0        0
    134  6.250E+01 0.000E+00 0.000E+00 0.000E+00 0.000E+00    1      135        0        0
    135  6.250E+01 0.000E+00 0.000E+00 0.000E+00 0.000E+00    1      136        0        0
    136  6.250E+01 0.000E+00 0.000E+00 0.000E+00 0.000E+00    1      137        0        0
    137  6.250E+01 0.000E+00 0.000E+00 0.000E+00 0.000E+00    1      138        0        0
    138  6.250E+01 0.000E+00 0.000E+00 0.000E+00 0.000E+00    1      139        0        0
    139  6.250E+01 0.000E+00 0.000E+00 0.000E+00 0.000E+00    1      140        0        0
    140  6.250E+01 0.000E+00 0.000E+00 0.000E+00 0.000E+00    1      141        0        0
    141  6.250E+01 0.000E+00 0.000E+00 0.000E+00 0.000E+00    1      142        0        0
    142  6.250E+01 0.000E+00 0.000E+00 0.000E+00 0.000E+00    1      143        0        0
    143  6.250E+01 0.000E+00 0.000E+00 0.000E+00 0.000E+00    1      144        0        0
    144  6.250E+01 0.000E+00 0.000E+00 0.000E+00 0.000E+00    1      145        0        0
    145  6.250E+01 0.000E+00 0.000E+00 0.000E+00 0.000E+00    1      146        0        0
    146  6.250E+01 0.000E+00 0.000E+00 0.000E+00 0.000E+00    1      147        0        0
    147  6.250E+01 0.000E+00 0.000E+00 0.000E+00 0.000E+00    1      148        0        0
    148  6.250E+01 0.000E+00 0.000E+00 0.000E+00 0.000E+00    1      149        0        0
    149  6.250E+01 0.000E+00 0.000E+00 0.000E+00 0.000E+00    1      150        0        0
    150  6.250E+01 0.000E+00 0.000E+00 0.000E+00 0.000E+00    1      151        0        0
    151  6.250E+01 0.000E+00 0.000E+00 0.000E+00 0.000E+00    1      152        0        0
    152  6.250E+01 0.000E+00 0.000E+00 0.000E+00 0.000E+00    1      153        0        0
    153  6.250E+01 0.000E+00 0.000E+00 0.000E+00 0.000E+00    1      154        0        0
    154  6.250E+01 0.000E+00 0.000E+00 0.000E+00 0.000E+00    1      155        0        0
    155  6.250E+01 0.000E+00 0.000E+00 0.000E+00 0.000E+00    1      156        0        0
    156  6.250E+01 0.000E+00 0.000E+00 0.000E+00 0.000E+00    1      157        0        0
    157  6.250E+01 0.000E+00 0.000E+00 0.000E+00 0.000E+00    1      158        0        0
    158  6.250E+01 0.000E+00 0.000E+00 0.000E+00 0.000E+00    1      159        0        0
    159  6.250E+01 0.000E+00 0.000E+00 0.000E+00 0.000E+00    1      160        0        0
    160  6.250E+01 0.000E+00 0.000E+00 0.000E+00 0.000E+00    1      161        0        0


         STREAMBED PROPERTIES AND STREAM DIMENSIONS

 SEGMENT     WIDTH OF STREAM     DEPTH OF STREAM    STREAM ROUGHNESS
    No.     UPPER     LOWER     UPPER     LOWER     CHANNEL      BANK

     1    5.000E+00 5.000E+00                      1.000E-01
     2    5.000E+00 5.000E+00                      1.000E-01
     3    5.000E+00 5.000E+00                      1.000E-01
     4    5.000E+00 5.000E+00                      1.000E-01
     5    5.000E+00 5.000E+00                      1.000E-01
     6    5.000E+00 5.000E+00                      1.000E-01
     7    5.000E+00 5.000E+00                      1.000E-01
     8    5.000E+00 5.000E+00                      1.000E-01
     9    5.000E+00 5.000E+00                      1.000E-01
    10    5.000E+00 5.000E+00                      1.000E-01
    11    5.000E+00 5.000E+00                      1.000E-01
    12    5.000E+00 5.000E+00                      1.000E-01
    13    5.000E+00 5.000E+00                      1.000E-01
    14    5.000E+00 5.000E+00                      1.000E-01
    15    5.000E+00 5.000E+00                      1.000E-01
    16    5.000E+00 5.000E+00                      1.000E-01
    17    5.000E+00 5.000E+00                      1.000E-01
    18    5.000E+00 5.000E+00                      1.000E-01
    19    5.000E+00 5.000E+00                      1.000E-01
    20    5.000E+00 5.000E+00                      1.000E-01
    21    5.000E+00 5.000E+00                      1.000E-01
    22    5.000E+00 5.000E+00                      1.000E-01
    23    5.000E+00 5.000E+00                      1.000E-01
    24    5.000E+00 5.000E+00                      1.000E-01
    25    5.000E+00 5.000E+00                      1.000E-01
    26    5.000E+00 5.000E+00                      1.000E-01
    27    5.000E+00 5.000E+00                      1.000E-01
    28    5.000E+00 5.000E+00                      1.000E-01
    29    5.000E+00 5.000E+00                      1.000E-01
    30    5.000E+00 5.000E+00                      1.000E-01
    31    5.000E+00 5.000E+00                      1.000E-01
    32    5.000E+00 5.000E+00                      1.000E-01
    33    5.000E+00 5.000E+00                      1.000E-01
    34    5.000E+00 5.000E+00                      1.000E-01
    35    5.000E+00 5.000E+00                      1.000E-01
    36    5.000E+00 5.000E+00                      1.000E-01
    37    5.000E+00 5.000E+00                      1.000E-01
    38    5.000E+00 5.000E+00                      1.000E-01
    39    5.000E+00 5.000E+00                      1.000E-01
    40    5.000E+00 5.000E+00                      1.000E-01
    41    5.000E+00 5.000E+00                      1.000E-01
    42    5.000E+00 5.000E+00                      1.000E-01
    43    5.000E+00 5.000E+00                      1.000E-01
    44    5.000E+00 5.000E+00                      1.000E-01
    45    5.000E+00 5.000E+00                      1.000E-01
    46    5.000E+00 5.000E+00                      1.000E-01
    47    5.000E+00 5.000E+00                      1.000E-01
    48    5.000E+00 5.000E+00                      1.000E-01
    49    5.000E+00 5.000E+00                      1.000E-01
    50    5.000E+00 5.000E+00                      1.000E-01
    51    5.000E+00 5.000E+00                      1.000E-01
    52    5.000E+00 5.000E+00                      1.000E-01
    53    5.000E+00 5.000E+00                      1.000E-01
    54    5.000E+00 5.000E+00                      1.000E-01
    55    5.000E+00 5.000E+00                      1.000E-01
    56    5.000E+00 5.000E+00                      1.000E-01
    57    5.000E+00 5.000E+00                      1.000E-01
    58    5.000E+00 5.000E+00                      1.000E-01
    59    5.000E+00 5.000E+00                      1.000E-01
    60    5.000E+00 5.000E+00                      1.000E-01
    61    5.000E+00 5.000E+00                      1.000E-01
    62    5.000E+00 5.000E+00                      1.000E-01
    63    5.000E+00 5.000E+00                      1.000E-01
    64    5.000E+00 5.000E+00                      1.000E-01
    65    5.000E+00 5.000E+00                      1.000E-01
    66    5.000E+00 5.000E+00                      1.000E-01
    67    5.000E+00 5.000E+00                      1.000E-01
    68    5.000E+00 5.000E+00                      1.000E-01
    69    5.000E+00 5.000E+00                      1.000E-01
    70    5.000E+00 5.000E+00                      1.000E-01
    71    5.000E+00 5.000E+00                      1.000E-01
    72    5.000E+00 5.000E+00                      1.000E-01
    73    5.000E+00 5.000E+00                      1.000E-01
    74    5.000E+00 5.000E+00                      1.000E-01
    75    5.000E+00 5.000E+00                      1.000E-01
    76    5.000E+00 5.000E+00                      1.000E-01
    77    5.000E+00 5.000E+00                      1.000E-01
    78    5.000E+00 5.000E+00                      1.000E-01
    79    5.000E+00 5.000E+00                      1.000E-01
    80    5.000E+00 5.000E+00                      1.000E-01
    81    5.000E+00 5.000E+00                      1.000E-01
    82    5.000E+00 5.000E+00                      1.000E-01
    83    5.000E+00 5.000E+00                      1.000E-01
    84    5.000E+00 5.000E+00                      1.000E-01
    85    5.000E+00 5.000E+00                      1.000E-01
    86    5.000E+00 5.000E+00                      1.000E-01
    87    5.000E+00 5.000E+00                      1.000E-01
    88    5.000E+00 5.000E+00                      1.000E-01
    89    5.000E+00 5.000E+00                      1.000E-01
    90    5.000E+00 5.000E+00                      1.000E-01
    91    5.000E+00 5.000E+00                      1.000E-01
    92    5.000E+00 5.000E+00                      1.000E-01
    93    5.000E+00 5.000E+00                      1.000E-01
    94    5.000E+00 5.000E+00                      1.000E-01
    95    5.000E+00 5.000E+00                      1.000E-01
    96    5.000E+00 5.000E+00                      1.000E-01
    97    5.000E+00 5.000E+00                      1.000E-01
    98    5.000E+00 5.000E+00                      1.000E-01
    99    5.000E+00 5.000E+00                      1.000E-01
   100    5.000E+00 5.000E+00                      1.000E-01
   101    5.000E+00 5.000E+00                      1.000E-01
   102    5.000E+00 5.000E+00                      1.000E-01
   103    5.000E+00 5.000E+00                      1.000E-01
   104    5.000E+00 5.000E+00                      1.000E-01
   105    5.000E+00 5.000E+00                      1.000E-01
   106    5.000E+00 5.000E+00                      1.000E-01
   107    5.000E+00 5.000E+00                      1.000E-01
   108    5.000E+00 5.000E+00                      1.000E-01
   109    5.000E+00 5.000E+00                      1.000E-01
   110    5.000E+00 5.000E+00                      1.000E-01
   111    5.000E+00 5.000E+00                      1.000E-01
   112    5.000E+00 5.000E+00                      1.000E-01
   113    5.000E+00 5.000E+00                      1.000E-01
   114    5.000E+00 5.000E+00                      1.000E-01
   115    5.000E+00 5.000E+00                      1.000E-01
   116    5.000E+00 5.000E+00                      1.000E-01
   117    5.000E+00 5.000E+00                      1.000E-01
   118    5.000E+00 5.000E+00                      1.000E-01
   119    5.000E+00 5.000E+00                      1.000E-01
   120    5.000E+00 5.000E+00                      1.000E-01
   121    5.000E+00 5.000E+00                      1.000E-01
   122    5.000E+00 5.000E+00                      1.000E-01
   123    5.000E+00 5.000E+00                      1.000E-01
   124    5.000E+00 5.000E+00                      1.000E-01
   125    5.000E+00 5.000E+00                      1.000E-01
   126    5.000E+00 5.000E+00                      1.000E-01
   127    5.000E+00 5.000E+00                      1.000E-01
   128    5.000E+00 5.000E+00                      1.000E-01
   129    5.000E+00 5.000E+00                      1.000E-01
   130    5.000E+00 5.000E+00                      1.000E-01
   131    5.000E+00 5.000E+00                      1.000E-01
   132    5.000E+00 5.000E+00                      1.000E-01
   133    5.000E+00 5.000E+00                      1.000E-01
   134    5.000E+00 5.000E+00                      1.000E-01
   135    5.000E+00 5.000E+00                      1.000E-01
   136    5.000E+00 5.000E+00                      1.000E-01
   137    5.000E+00 5.000E+00                      1.000E-01
   138    5.000E+00 5.000E+00                      1.000E-01
   139    5.000E+00 5.000E+00                      1.000E-01
   140    5.000E+00 5.000E+00                      1.000E-01
   141    5.000E+00 5.000E+00                      1.000E-01
   142    5.000E+00 5.000E+00                      1.000E-01
   143    5.000E+00 5.000E+00                      1.000E-01
   144    5.000E+00 5.000E+00                      1.000E-01
   145    5.000E+00 5.000E+00                      1.000E-01
   146    5.000E+00 5.000E+00                      1.000E-01
   147    5.000E+00 5.000E+00                      1.000E-01
   148    5.000E+00 5.000E+00                      1.000E-01
   149    5.000E+00 5.000E+00                      1.000E-01
   150    5.000E+00 5.000E+00                      1.000E-01
   151    5.000E+00 5.000E+00                      1.000E-01
   152    5.000E+00 5.000E+00                      1.000E-01
   153    5.000E+00 5.000E+00                      1.000E-01
   154    5.000E+00 5.000E+00                      1.000E-01
   155    5.000E+00 5.000E+00                      1.000E-01
   156    5.000E+00 5.000E+00                      1.000E-01
   157    5.000E+00 5.000E+00                      1.000E-01
   158    5.000E+00 5.000E+00                      1.000E-01
   159    5.000E+00 5.000E+00                      1.000E-01
   160    5.000E+00 5.000E+00                      1.000E-01



 
 SOLVING FOR HEAD 


 OUTER ITERATION SUMMARY
 -----------------------
 BT: Backtracking; LA: Linear Acceleration; UR: Under-relaxation

    Outer-Iteration  Inner-Iteration    Maximum Head Change  Maximum Head Change
        Number           Count               Value              Location
LA         1                8              -0.30940                  4092           GWF-node number
LA         2                5              -0.13088E-01              1094           GWF-node number
LA         3                2              -0.52875E-03              1425           GWF-node number
LA         4                1              -0.35442E-04              1427           GWF-node number


     4 CALLS TO SPARSE MATRIX SOLVER PACKAGE  IN FLOW TIME STEP   1 STRESS PERIOD   7

 TOTAL OF       4OUTER ITERATIONS
  MAXIMUM CHANGE FOR EACH ITERATION:
   MAX. CHANGE        NODE  MAX. CHANGE        NODE  MAX. CHANGE        NODE  MAX. CHANGE        NODE  MAX. CHANGE        NODE
 ------------------------------------------------------------------------------------------------------------------------------------
  -0.30940    ,       4092 -0.13088E-01,       1094 -0.52875E-03,       1425 -0.35442E-04,       1427

 OUTPUT CONTROL FOR STRESS PERIOD        7   TIME STEP        1
    SAVE HEAD FOR ALL LAYERS
    SAVE BUDGET
 UBDSV1U SAVING "         STORAGE" ON UNIT  50 AT TIME STEP      1, STRESS PERIOD      7
 UBDSV2U SAVING "   CONSTANT HEAD" ON UNIT  50 AT TIME STEP      1, STRESS PERIOD      7
 UBDSV1U SAVING "   FLOW JA FACE " ON UNIT  50 AT TIME STEP      1, STRESS PERIOD      7
 UBDSV4U SAVING "           WELLS" ON UNIT  50 AT TIME STEP      1, STRESS PERIOD      7
 UBDSV4U SAVING " HEAD DEP BOUNDS" ON UNIT  50 AT TIME STEP      1, STRESS PERIOD      7
 UBDSV3U SAVING "        RECHARGE" ON UNIT  50 AT TIME STEP      1, STRESS PERIOD      7
 UBDSV2U SAVING "  STREAM LEAKAGE" ON UNIT  50 AT TIME STEP      1, STRESS PERIOD      7




 HEAD WILL BE SAVED ON UNIT   51 AT END OF TIME STEP   1, STRESS PERIOD    7
1
  VOLUMETRIC BUDGET FOR ENTIRE MODEL AT END OF TIME STEP       1 IN STRESS PERIOD       7
  ---------------------------------------------------------------------------------------

     CUMULATIVE VOLUMES      L**3       RATES FOR THIS TIME STEP      L**3/T
     ------------------                 ------------------------

           IN:                                      IN:
           ---                                      ---
             STORAGE =      143525.4171               STORAGE =        2611.8594
       CONSTANT HEAD =           0.0000         CONSTANT HEAD =           0.0000
               WELLS =           0.0000                 WELLS =           0.0000
     HEAD DEP BOUNDS =       36073.2940       HEAD DEP BOUNDS =         307.1992
            RECHARGE =      605569.2178              RECHARGE =        1652.2573
      STREAM LEAKAGE =        1919.2341        STREAM LEAKAGE =           1.5007

            TOTAL IN =      787087.1631              TOTAL IN =        4572.8167

          OUT:                                     OUT:
          ----                                     ----
             STORAGE =      171072.8319               STORAGE =           0.0000
       CONSTANT HEAD =           0.0000         CONSTANT HEAD =           0.0000
               WELLS =      353379.7690                 WELLS =        3480.6514
     HEAD DEP BOUNDS =      134668.9038       HEAD DEP BOUNDS =         514.2275
            RECHARGE =           0.0000              RECHARGE =           0.0000
      STREAM LEAKAGE =      127966.1064        STREAM LEAKAGE =         577.9573

           TOTAL OUT =      787087.6111             TOTAL OUT =        4572.8361

            IN - OUT =          -0.4480              IN - OUT =      -1.9464E-02

 PERCENT DISCREPANCY =          -0.00     PERCENT DISCREPANCY =          -0.00






          TIME SUMMARY AT END OF TIME STEP         1 IN STRESS PERIOD         7
                    SECONDS     MINUTES      HOURS       DAYS        YEARS
                    -----------------------------------------------------------
   TIME STEP LENGTH 2.59200E+06  43200.      720.00      30.000     8.21355E-02
 STRESS PERIOD TIME 2.59200E+06  43200.      720.00      30.000     8.21355E-02
         TOTAL TIME 1.58112E+07 2.63520E+05  4392.0      183.00     0.50103    
1
1
                            STRESS PERIOD NO.    8, LENGTH =   31.00000    
                            -----------------------------------------------

                              NUMBER OF TIME STEPS =     1

                               MULTIPLIER FOR DELT =     1.000

                            INITIAL TIME STEP SIZE =   31.00000    

 WEL -- WELL PACKAGE, VERSION 7, 5/2/2005 INPUT READ FROM UNIT   20

 WELL NO.      NODE       STRESS FACTOR         
 -----------------------------------------------
      1        3324      -580.1    
      2        3409      -580.1    
      3        3737      -580.1    
      4        3971      -580.1    
      5        4092      -580.1    
      6        4297      -580.1    

      6 WELLS

 GHB -- GENERAL-HEAD BOUNDARY PACKAGE, VERSION 7, 5/2/2005
         INPUT READ FROM UNIT   30

 BOUND NO.     NODE         STAGE         CONDUCTANCE         
 -------------------------------------------------------------
      1        1473       33.50           70.00    
      2        1474       33.50           70.00    
      3        1475       33.50           70.00    
      4        1476       33.50           70.00    
      5        1477       33.50           70.00    
      6        1478       33.50           70.00    
      7        1479       33.50           70.00    
      8        1480       33.50           70.00    
      9        1481       33.50           70.00    
     10        1482       33.50           70.00    
     11        2972       33.50           70.00    
     12        2973       33.50           70.00    
     13        2974       33.50           70.00    
     14        2975       33.50           70.00    
     15        2976       33.50           70.00    
     16        2977       33.50           70.00    
     17        2978       33.50           70.00    
     18        2979       33.50           70.00    
     19        2980       33.50           70.00    
     20        2981       33.50           70.00    
     21        4471       33.50           70.00    
     22        4472       33.50           70.00    
     23        4473       33.50           70.00    
     24        4474       33.50           70.00    
     25        4475       33.50           70.00    
     26        4476       33.50           70.00    
     27        4477       33.50           70.00    
     28        4478       33.50           70.00    
     29        4479       33.50           70.00    
     30        4480       33.50           70.00    
     31        2999       35.50           70.00    
     32        3000       35.50           70.00    
     33        3001       35.50           70.00    
     34        3002       35.50           70.00    
     35        3003       35.50           70.00    
     36        3004       35.50           70.00    
     37        3005       35.50           70.00    
     38        3006       35.50           70.00    
     39        3007       35.50           70.00    
     40        3008       35.50           70.00    
     41        3009       35.50           70.00    
     42        3010       35.50           70.00    
     43        3011       35.50           70.00    
     44        3012       35.50           70.00    
     45        3013       35.50           70.00    
     46        3023       35.50           4.375    
     47        3027       35.50           17.50    
     48        3028       35.50           70.00    
     49        3029       35.50           70.00    
     50        3030       35.50           70.00    

     50 GHB CELLS

 RCH -- RECHARGE PACKAGE, VERSION 7, 5/2/2005 INPUT READ FROM UNIT   31



                           RECHARGE
 READING ON UNIT   31 WITH FORMAT: (1499E15.6)         



 CLASSIFICATION & COUNT OF STREAM SEGMENTS BASED ON SOURCE OF INFLOW:

                HEADWATER     DIVERSION     RECEIVES TRIBUTARY FLOW
                ---------     ---------     -----------------------
                     1              0             159



                    INPUT DATA FOR EACH STREAM SEGMENT
 ---------------------------------------------------------------------------------------------

 SEGMENT    SEG.     INFLOW   OVERLAND   STREAM    STREAM   ICALC  OUTFLOW  DIVERSION PRIORITY
    NO.    LENGTH     RATE     RUNOFF      ET       PPT.    METH.  TO SEG.  FROM SEG.    NO.

      1  6.250E+01 4.103E+03 0.000E+00 0.000E+00 0.000E+00    1        2        0        0
      2  6.250E+01 0.000E+00 0.000E+00 0.000E+00 0.000E+00    1        3        0        0
      3  6.250E+01 0.000E+00 0.000E+00 0.000E+00 0.000E+00    1        4        0        0
      4  6.250E+01 0.000E+00 0.000E+00 0.000E+00 0.000E+00    1        5        0        0
      5  6.250E+01 0.000E+00 0.000E+00 0.000E+00 0.000E+00    1        6        0        0
      6  6.250E+01 0.000E+00 0.000E+00 0.000E+00 0.000E+00    1        7        0        0
      7  6.250E+01 0.000E+00 0.000E+00 0.000E+00 0.000E+00    1        8        0        0
      8  6.250E+01 0.000E+00 0.000E+00 0.000E+00 0.000E+00    1        9        0        0
      9  6.250E+01 0.000E+00 0.000E+00 0.000E+00 0.000E+00    1       10        0        0
     10  6.250E+01 0.000E+00 0.000E+00 0.000E+00 0.000E+00    1       11        0        0
     11  6.250E+01 0.000E+00 0.000E+00 0.000E+00 0.000E+00    1       12        0        0
     12  6.250E+01 0.000E+00 0.000E+00 0.000E+00 0.000E+00    1       13        0        0
     13  6.250E+01 0.000E+00 0.000E+00 0.000E+00 0.000E+00    1       14        0        0
     14  6.250E+01 0.000E+00 0.000E+00 0.000E+00 0.000E+00    1       15        0        0
     15  6.250E+01 0.000E+00 0.000E+00 0.000E+00 0.000E+00    1       16        0        0
     16  6.250E+01 0.000E+00 0.000E+00 0.000E+00 0.000E+00    1       17        0        0
     17  6.250E+01 0.000E+00 0.000E+00 0.000E+00 0.000E+00    1       18        0        0
     18  6.250E+01 0.000E+00 0.000E+00 0.000E+00 0.000E+00    1       19        0        0
     19  6.250E+01 0.000E+00 0.000E+00 0.000E+00 0.000E+00    1       20        0        0
     20  6.250E+01 0.000E+00 0.000E+00 0.000E+00 0.000E+00    1       21        0        0
     21  6.250E+01 0.000E+00 0.000E+00 0.000E+00 0.000E+00    1       22        0        0
     22  6.250E+01 0.000E+00 0.000E+00 0.000E+00 0.000E+00    1       23        0        0
     23  6.250E+01 0.000E+00 0.000E+00 0.000E+00 0.000E+00    1       24        0        0
     24  6.250E+01 0.000E+00 0.000E+00 0.000E+00 0.000E+00    1       25        0        0
     25  6.250E+01 0.000E+00 0.000E+00 0.000E+00 0.000E+00    1       26        0        0
     26  6.250E+01 0.000E+00 0.000E+00 0.000E+00 0.000E+00    1       27        0        0
     27  6.250E+01 0.000E+00 0.000E+00 0.000E+00 0.000E+00    1       28        0        0
     28  6.250E+01 0.000E+00 0.000E+00 0.000E+00 0.000E+00    1       29        0        0
     29  6.250E+01 0.000E+00 0.000E+00 0.000E+00 0.000E+00    1       30        0        0
     30  6.250E+01 0.000E+00 0.000E+00 0.000E+00 0.000E+00    1       31        0        0
     31  6.250E+01 0.000E+00 0.000E+00 0.000E+00 0.000E+00    1       32        0        0
     32  6.250E+01 0.000E+00 0.000E+00 0.000E+00 0.000E+00    1       33        0        0
     33  6.250E+01 0.000E+00 0.000E+00 0.000E+00 0.000E+00    1       34        0        0
     34  6.250E+01 0.000E+00 0.000E+00 0.000E+00 0.000E+00    1       35        0        0
     35  6.250E+01 0.000E+00 0.000E+00 0.000E+00 0.000E+00    1       36        0        0
     36  6.250E+01 0.000E+00 0.000E+00 0.000E+00 0.000E+00    1       37        0        0
     37  6.250E+01 0.000E+00 0.000E+00 0.000E+00 0.000E+00    1       38        0        0
     38  6.250E+01 0.000E+00 0.000E+00 0.000E+00 0.000E+00    1       39        0        0
     39  6.250E+01 0.000E+00 0.000E+00 0.000E+00 0.000E+00    1       40        0        0
     40  6.250E+01 0.000E+00 0.000E+00 0.000E+00 0.000E+00    1       41        0        0
     41  6.250E+01 0.000E+00 0.000E+00 0.000E+00 0.000E+00    1       42        0        0
     42  6.250E+01 0.000E+00 0.000E+00 0.000E+00 0.000E+00    1       43        0        0
     43  6.250E+01 0.000E+00 0.000E+00 0.000E+00 0.000E+00    1       44        0        0
     44  6.250E+01 0.000E+00 0.000E+00 0.000E+00 0.000E+00    1       45        0        0
     45  6.250E+01 0.000E+00 0.000E+00 0.000E+00 0.000E+00    1       46        0        0
     46  6.250E+01 0.000E+00 0.000E+00 0.000E+00 0.000E+00    1       47        0        0
     47  6.250E+01 0.000E+00 0.000E+00 0.000E+00 0.000E+00    1       48        0        0
     48  6.250E+01 0.000E+00 0.000E+00 0.000E+00 0.000E+00    1       49        0        0
     49  6.250E+01 0.000E+00 0.000E+00 0.000E+00 0.000E+00    1       50        0        0
     50  6.250E+01 0.000E+00 0.000E+00 0.000E+00 0.000E+00    1       51        0        0
     51  6.250E+01 0.000E+00 0.000E+00 0.000E+00 0.000E+00    1       52        0        0
     52  6.250E+01 0.000E+00 0.000E+00 0.000E+00 0.000E+00    1       53        0        0
     53  6.250E+01 0.000E+00 0.000E+00 0.000E+00 0.000E+00    1       54        0        0
     54  6.250E+01 0.000E+00 0.000E+00 0.000E+00 0.000E+00    1       55        0        0
     55  6.250E+01 0.000E+00 0.000E+00 0.000E+00 0.000E+00    1       56        0        0
     56  6.250E+01 0.000E+00 0.000E+00 0.000E+00 0.000E+00    1       57        0        0
     57  6.250E+01 0.000E+00 0.000E+00 0.000E+00 0.000E+00    1       58        0        0
     58  6.250E+01 0.000E+00 0.000E+00 0.000E+00 0.000E+00    1       59        0        0
     59  6.250E+01 0.000E+00 0.000E+00 0.000E+00 0.000E+00    1       60        0        0
     60  6.250E+01 0.000E+00 0.000E+00 0.000E+00 0.000E+00    1       61        0        0
     61  6.250E+01 0.000E+00 0.000E+00 0.000E+00 0.000E+00    1       62        0        0
     62  6.250E+01 0.000E+00 0.000E+00 0.000E+00 0.000E+00    1       63        0        0
     63  6.250E+01 0.000E+00 0.000E+00 0.000E+00 0.000E+00    1       64        0        0
     64  6.250E+01 0.000E+00 0.000E+00 0.000E+00 0.000E+00    1       65        0        0
     65  6.250E+01 0.000E+00 0.000E+00 0.000E+00 0.000E+00    1       66        0        0
     66  6.250E+01 0.000E+00 0.000E+00 0.000E+00 0.000E+00    1       67        0        0
     67  6.250E+01 0.000E+00 0.000E+00 0.000E+00 0.000E+00    1       68        0        0
     68  6.250E+01 0.000E+00 0.000E+00 0.000E+00 0.000E+00    1       69        0        0
     69  6.250E+01 0.000E+00 0.000E+00 0.000E+00 0.000E+00    1       70        0        0
     70  6.250E+01 0.000E+00 0.000E+00 0.000E+00 0.000E+00    1       71        0        0
     71  6.250E+01 0.000E+00 0.000E+00 0.000E+00 0.000E+00    1       72        0        0
     72  6.250E+01 0.000E+00 0.000E+00 0.000E+00 0.000E+00    1       73        0        0
     73  6.250E+01 0.000E+00 0.000E+00 0.000E+00 0.000E+00    1       74        0        0
     74  6.250E+01 0.000E+00 0.000E+00 0.000E+00 0.000E+00    1       75        0        0
     75  6.250E+01 0.000E+00 0.000E+00 0.000E+00 0.000E+00    1       76        0        0
     76  6.250E+01 0.000E+00 0.000E+00 0.000E+00 0.000E+00    1       77        0        0
     77  6.250E+01 0.000E+00 0.000E+00 0.000E+00 0.000E+00    1       78        0        0
     78  6.250E+01 0.000E+00 0.000E+00 0.000E+00 0.000E+00    1       79        0        0
     79  6.250E+01 0.000E+00 0.000E+00 0.000E+00 0.000E+00    1       80        0        0
     80  6.250E+01 0.000E+00 0.000E+00 0.000E+00 0.000E+00    1       81        0        0
     81  6.250E+01 0.000E+00 0.000E+00 0.000E+00 0.000E+00    1       82        0        0
     82  6.250E+01 0.000E+00 0.000E+00 0.000E+00 0.000E+00    1       83        0        0
     83  6.250E+01 0.000E+00 0.000E+00 0.000E+00 0.000E+00    1       84        0        0
     84  6.250E+01 0.000E+00 0.000E+00 0.000E+00 0.000E+00    1       85        0        0
     85  6.250E+01 0.000E+00 0.000E+00 0.000E+00 0.000E+00    1       86        0        0
     86  6.250E+01 0.000E+00 0.000E+00 0.000E+00 0.000E+00    1       87        0        0
     87  6.250E+01 0.000E+00 0.000E+00 0.000E+00 0.000E+00    1       88        0        0
     88  6.250E+01 0.000E+00 0.000E+00 0.000E+00 0.000E+00    1       89        0        0
     89  6.250E+01 0.000E+00 0.000E+00 0.000E+00 0.000E+00    1       90        0        0
     90  6.250E+01 0.000E+00 0.000E+00 0.000E+00 0.000E+00    1       91        0        0
     91  6.250E+01 0.000E+00 0.000E+00 0.000E+00 0.000E+00    1       92        0        0
     92  6.250E+01 0.000E+00 0.000E+00 0.000E+00 0.000E+00    1       93        0        0
     93  6.250E+01 0.000E+00 0.000E+00 0.000E+00 0.000E+00    1       94        0        0
     94  6.250E+01 0.000E+00 0.000E+00 0.000E+00 0.000E+00    1       95        0        0
     95  6.250E+01 0.000E+00 0.000E+00 0.000E+00 0.000E+00    1       96        0        0
     96  6.250E+01 0.000E+00 0.000E+00 0.000E+00 0.000E+00    1       97        0        0
     97  6.250E+01 0.000E+00 0.000E+00 0.000E+00 0.000E+00    1       98        0        0
     98  6.250E+01 0.000E+00 0.000E+00 0.000E+00 0.000E+00    1       99        0        0
     99  6.250E+01 0.000E+00 0.000E+00 0.000E+00 0.000E+00    1      100        0        0
    100  6.250E+01 0.000E+00 0.000E+00 0.000E+00 0.000E+00    1      101        0        0
    101  6.250E+01 0.000E+00 0.000E+00 0.000E+00 0.000E+00    1      102        0        0
    102  6.250E+01 0.000E+00 0.000E+00 0.000E+00 0.000E+00    1      103        0        0
    103  6.250E+01 0.000E+00 0.000E+00 0.000E+00 0.000E+00    1      104        0        0
    104  6.250E+01 0.000E+00 0.000E+00 0.000E+00 0.000E+00    1      105        0        0
    105  6.250E+01 0.000E+00 0.000E+00 0.000E+00 0.000E+00    1      106        0        0
    106  6.250E+01 0.000E+00 0.000E+00 0.000E+00 0.000E+00    1      107        0        0
    107  6.250E+01 0.000E+00 0.000E+00 0.000E+00 0.000E+00    1      108        0        0
    108  6.250E+01 0.000E+00 0.000E+00 0.000E+00 0.000E+00    1      109        0        0
    109  6.250E+01 0.000E+00 0.000E+00 0.000E+00 0.000E+00    1      110        0        0
    110  6.250E+01 0.000E+00 0.000E+00 0.000E+00 0.000E+00    1      111        0        0
    111  6.250E+01 0.000E+00 0.000E+00 0.000E+00 0.000E+00    1      112        0        0
    112  6.250E+01 0.000E+00 0.000E+00 0.000E+00 0.000E+00    1      113        0        0
    113  6.250E+01 0.000E+00 0.000E+00 0.000E+00 0.000E+00    1      114        0        0
    114  6.250E+01 0.000E+00 0.000E+00 0.000E+00 0.000E+00    1      115        0        0
    115  6.250E+01 0.000E+00 0.000E+00 0.000E+00 0.000E+00    1      116        0        0
    116  6.250E+01 0.000E+00 0.000E+00 0.000E+00 0.000E+00    1      117        0        0
    117  6.250E+01 0.000E+00 0.000E+00 0.000E+00 0.000E+00    1      118        0        0
    118  6.250E+01 0.000E+00 0.000E+00 0.000E+00 0.000E+00    1      119        0        0
    119  6.250E+01 0.000E+00 0.000E+00 0.000E+00 0.000E+00    1      120        0        0
    120  6.250E+01 0.000E+00 0.000E+00 0.000E+00 0.000E+00    1      121        0        0
    121  6.250E+01 0.000E+00 0.000E+00 0.000E+00 0.000E+00    1      122        0        0
    122  6.250E+01 0.000E+00 0.000E+00 0.000E+00 0.000E+00    1      123        0        0
    123  6.250E+01 0.000E+00 0.000E+00 0.000E+00 0.000E+00    1      124        0        0
    124  6.250E+01 0.000E+00 0.000E+00 0.000E+00 0.000E+00    1      125        0        0
    125  6.250E+01 0.000E+00 0.000E+00 0.000E+00 0.000E+00    1      126        0        0
    126  6.250E+01 0.000E+00 0.000E+00 0.000E+00 0.000E+00    1      127        0        0
    127  6.250E+01 0.000E+00 0.000E+00 0.000E+00 0.000E+00    1      128        0        0
    128  6.250E+01 0.000E+00 0.000E+00 0.000E+00 0.000E+00    1      129        0        0
    129  6.250E+01 0.000E+00 0.000E+00 0.000E+00 0.000E+00    1      130        0        0
    130  6.250E+01 0.000E+00 0.000E+00 0.000E+00 0.000E+00    1      131        0        0
    131  6.250E+01 0.000E+00 0.000E+00 0.000E+00 0.000E+00    1      132        0        0
    132  6.250E+01 0.000E+00 0.000E+00 0.000E+00 0.000E+00    1      133        0        0
    133  6.250E+01 0.000E+00 0.000E+00 0.000E+00 0.000E+00    1      134        0        0
    134  6.250E+01 0.000E+00 0.000E+00 0.000E+00 0.000E+00    1      135        0        0
    135  6.250E+01 0.000E+00 0.000E+00 0.000E+00 0.000E+00    1      136        0        0
    136  6.250E+01 0.000E+00 0.000E+00 0.000E+00 0.000E+00    1      137        0        0
    137  6.250E+01 0.000E+00 0.000E+00 0.000E+00 0.000E+00    1      138        0        0
    138  6.250E+01 0.000E+00 0.000E+00 0.000E+00 0.000E+00    1      139        0        0
    139  6.250E+01 0.000E+00 0.000E+00 0.000E+00 0.000E+00    1      140        0        0
    140  6.250E+01 0.000E+00 0.000E+00 0.000E+00 0.000E+00    1      141        0        0
    141  6.250E+01 0.000E+00 0.000E+00 0.000E+00 0.000E+00    1      142        0        0
    142  6.250E+01 0.000E+00 0.000E+00 0.000E+00 0.000E+00    1      143        0        0
    143  6.250E+01 0.000E+00 0.000E+00 0.000E+00 0.000E+00    1      144        0        0
    144  6.250E+01 0.000E+00 0.000E+00 0.000E+00 0.000E+00    1      145        0        0
    145  6.250E+01 0.000E+00 0.000E+00 0.000E+00 0.000E+00    1      146        0        0
    146  6.250E+01 0.000E+00 0.000E+00 0.000E+00 0.000E+00    1      147        0        0
    147  6.250E+01 0.000E+00 0.000E+00 0.000E+00 0.000E+00    1      148        0        0
    148  6.250E+01 0.000E+00 0.000E+00 0.000E+00 0.000E+00    1      149        0        0
    149  6.250E+01 0.000E+00 0.000E+00 0.000E+00 0.000E+00    1      150        0        0
    150  6.250E+01 0.000E+00 0.000E+00 0.000E+00 0.000E+00    1      151        0        0
    151  6.250E+01 0.000E+00 0.000E+00 0.000E+00 0.000E+00    1      152        0        0
    152  6.250E+01 0.000E+00 0.000E+00 0.000E+00 0.000E+00    1      153        0        0
    153  6.250E+01 0.000E+00 0.000E+00 0.000E+00 0.000E+00    1      154        0        0
    154  6.250E+01 0.000E+00 0.000E+00 0.000E+00 0.000E+00    1      155        0        0
    155  6.250E+01 0.000E+00 0.000E+00 0.000E+00 0.000E+00    1      156        0        0
    156  6.250E+01 0.000E+00 0.000E+00 0.000E+00 0.000E+00    1      157        0        0
    157  6.250E+01 0.000E+00 0.000E+00 0.000E+00 0.000E+00    1      158        0        0
    158  6.250E+01 0.000E+00 0.000E+00 0.000E+00 0.000E+00    1      159        0        0
    159  6.250E+01 0.000E+00 0.000E+00 0.000E+00 0.000E+00    1      160        0        0
    160  6.250E+01 0.000E+00 0.000E+00 0.000E+00 0.000E+00    1      161        0        0


         STREAMBED PROPERTIES AND STREAM DIMENSIONS

 SEGMENT     WIDTH OF STREAM     DEPTH OF STREAM    STREAM ROUGHNESS
    No.     UPPER     LOWER     UPPER     LOWER     CHANNEL      BANK

     1    5.000E+00 5.000E+00                      1.000E-01
     2    5.000E+00 5.000E+00                      1.000E-01
     3    5.000E+00 5.000E+00                      1.000E-01
     4    5.000E+00 5.000E+00                      1.000E-01
     5    5.000E+00 5.000E+00                      1.000E-01
     6    5.000E+00 5.000E+00                      1.000E-01
     7    5.000E+00 5.000E+00                      1.000E-01
     8    5.000E+00 5.000E+00                      1.000E-01
     9    5.000E+00 5.000E+00                      1.000E-01
    10    5.000E+00 5.000E+00                      1.000E-01
    11    5.000E+00 5.000E+00                      1.000E-01
    12    5.000E+00 5.000E+00                      1.000E-01
    13    5.000E+00 5.000E+00                      1.000E-01
    14    5.000E+00 5.000E+00                      1.000E-01
    15    5.000E+00 5.000E+00                      1.000E-01
    16    5.000E+00 5.000E+00                      1.000E-01
    17    5.000E+00 5.000E+00                      1.000E-01
    18    5.000E+00 5.000E+00                      1.000E-01
    19    5.000E+00 5.000E+00                      1.000E-01
    20    5.000E+00 5.000E+00                      1.000E-01
    21    5.000E+00 5.000E+00                      1.000E-01
    22    5.000E+00 5.000E+00                      1.000E-01
    23    5.000E+00 5.000E+00                      1.000E-01
    24    5.000E+00 5.000E+00                      1.000E-01
    25    5.000E+00 5.000E+00                      1.000E-01
    26    5.000E+00 5.000E+00                      1.000E-01
    27    5.000E+00 5.000E+00                      1.000E-01
    28    5.000E+00 5.000E+00                      1.000E-01
    29    5.000E+00 5.000E+00                      1.000E-01
    30    5.000E+00 5.000E+00                      1.000E-01
    31    5.000E+00 5.000E+00                      1.000E-01
    32    5.000E+00 5.000E+00                      1.000E-01
    33    5.000E+00 5.000E+00                      1.000E-01
    34    5.000E+00 5.000E+00                      1.000E-01
    35    5.000E+00 5.000E+00                      1.000E-01
    36    5.000E+00 5.000E+00                      1.000E-01
    37    5.000E+00 5.000E+00                      1.000E-01
    38    5.000E+00 5.000E+00                      1.000E-01
    39    5.000E+00 5.000E+00                      1.000E-01
    40    5.000E+00 5.000E+00                      1.000E-01
    41    5.000E+00 5.000E+00                      1.000E-01
    42    5.000E+00 5.000E+00                      1.000E-01
    43    5.000E+00 5.000E+00                      1.000E-01
    44    5.000E+00 5.000E+00                      1.000E-01
    45    5.000E+00 5.000E+00                      1.000E-01
    46    5.000E+00 5.000E+00                      1.000E-01
    47    5.000E+00 5.000E+00                      1.000E-01
    48    5.000E+00 5.000E+00                      1.000E-01
    49    5.000E+00 5.000E+00                      1.000E-01
    50    5.000E+00 5.000E+00                      1.000E-01
    51    5.000E+00 5.000E+00                      1.000E-01
    52    5.000E+00 5.000E+00                      1.000E-01
    53    5.000E+00 5.000E+00                      1.000E-01
    54    5.000E+00 5.000E+00                      1.000E-01
    55    5.000E+00 5.000E+00                      1.000E-01
    56    5.000E+00 5.000E+00                      1.000E-01
    57    5.000E+00 5.000E+00                      1.000E-01
    58    5.000E+00 5.000E+00                      1.000E-01
    59    5.000E+00 5.000E+00                      1.000E-01
    60    5.000E+00 5.000E+00                      1.000E-01
    61    5.000E+00 5.000E+00                      1.000E-01
    62    5.000E+00 5.000E+00                      1.000E-01
    63    5.000E+00 5.000E+00                      1.000E-01
    64    5.000E+00 5.000E+00                      1.000E-01
    65    5.000E+00 5.000E+00                      1.000E-01
    66    5.000E+00 5.000E+00                      1.000E-01
    67    5.000E+00 5.000E+00                      1.000E-01
    68    5.000E+00 5.000E+00                      1.000E-01
    69    5.000E+00 5.000E+00                      1.000E-01
    70    5.000E+00 5.000E+00                      1.000E-01
    71    5.000E+00 5.000E+00                      1.000E-01
    72    5.000E+00 5.000E+00                      1.000E-01
    73    5.000E+00 5.000E+00                      1.000E-01
    74    5.000E+00 5.000E+00                      1.000E-01
    75    5.000E+00 5.000E+00                      1.000E-01
    76    5.000E+00 5.000E+00                      1.000E-01
    77    5.000E+00 5.000E+00                      1.000E-01
    78    5.000E+00 5.000E+00                      1.000E-01
    79    5.000E+00 5.000E+00                      1.000E-01
    80    5.000E+00 5.000E+00                      1.000E-01
    81    5.000E+00 5.000E+00                      1.000E-01
    82    5.000E+00 5.000E+00                      1.000E-01
    83    5.000E+00 5.000E+00                      1.000E-01
    84    5.000E+00 5.000E+00                      1.000E-01
    85    5.000E+00 5.000E+00                      1.000E-01
    86    5.000E+00 5.000E+00                      1.000E-01
    87    5.000E+00 5.000E+00                      1.000E-01
    88    5.000E+00 5.000E+00                      1.000E-01
    89    5.000E+00 5.000E+00                      1.000E-01
    90    5.000E+00 5.000E+00                      1.000E-01
    91    5.000E+00 5.000E+00                      1.000E-01
    92    5.000E+00 5.000E+00                      1.000E-01
    93    5.000E+00 5.000E+00                      1.000E-01
    94    5.000E+00 5.000E+00                      1.000E-01
    95    5.000E+00 5.000E+00                      1.000E-01
    96    5.000E+00 5.000E+00                      1.000E-01
    97    5.000E+00 5.000E+00                      1.000E-01
    98    5.000E+00 5.000E+00                      1.000E-01
    99    5.000E+00 5.000E+00                      1.000E-01
   100    5.000E+00 5.000E+00                      1.000E-01
   101    5.000E+00 5.000E+00                      1.000E-01
   102    5.000E+00 5.000E+00                      1.000E-01
   103    5.000E+00 5.000E+00                      1.000E-01
   104    5.000E+00 5.000E+00                      1.000E-01
   105    5.000E+00 5.000E+00                      1.000E-01
   106    5.000E+00 5.000E+00                      1.000E-01
   107    5.000E+00 5.000E+00                      1.000E-01
   108    5.000E+00 5.000E+00                      1.000E-01
   109    5.000E+00 5.000E+00                      1.000E-01
   110    5.000E+00 5.000E+00                      1.000E-01
   111    5.000E+00 5.000E+00                      1.000E-01
   112    5.000E+00 5.000E+00                      1.000E-01
   113    5.000E+00 5.000E+00                      1.000E-01
   114    5.000E+00 5.000E+00                      1.000E-01
   115    5.000E+00 5.000E+00                      1.000E-01
   116    5.000E+00 5.000E+00                      1.000E-01
   117    5.000E+00 5.000E+00                      1.000E-01
   118    5.000E+00 5.000E+00                      1.000E-01
   119    5.000E+00 5.000E+00                      1.000E-01
   120    5.000E+00 5.000E+00                      1.000E-01
   121    5.000E+00 5.000E+00                      1.000E-01
   122    5.000E+00 5.000E+00                      1.000E-01
   123    5.000E+00 5.000E+00                      1.000E-01
   124    5.000E+00 5.000E+00                      1.000E-01
   125    5.000E+00 5.000E+00                      1.000E-01
   126    5.000E+00 5.000E+00                      1.000E-01
   127    5.000E+00 5.000E+00                      1.000E-01
   128    5.000E+00 5.000E+00                      1.000E-01
   129    5.000E+00 5.000E+00                      1.000E-01
   130    5.000E+00 5.000E+00                      1.000E-01
   131    5.000E+00 5.000E+00                      1.000E-01
   132    5.000E+00 5.000E+00                      1.000E-01
   133    5.000E+00 5.000E+00                      1.000E-01
   134    5.000E+00 5.000E+00                      1.000E-01
   135    5.000E+00 5.000E+00                      1.000E-01
   136    5.000E+00 5.000E+00                      1.000E-01
   137    5.000E+00 5.000E+00                      1.000E-01
   138    5.000E+00 5.000E+00                      1.000E-01
   139    5.000E+00 5.000E+00                      1.000E-01
   140    5.000E+00 5.000E+00                      1.000E-01
   141    5.000E+00 5.000E+00                      1.000E-01
   142    5.000E+00 5.000E+00                      1.000E-01
   143    5.000E+00 5.000E+00                      1.000E-01
   144    5.000E+00 5.000E+00                      1.000E-01
   145    5.000E+00 5.000E+00                      1.000E-01
   146    5.000E+00 5.000E+00                      1.000E-01
   147    5.000E+00 5.000E+00                      1.000E-01
   148    5.000E+00 5.000E+00                      1.000E-01
   149    5.000E+00 5.000E+00                      1.000E-01
   150    5.000E+00 5.000E+00                      1.000E-01
   151    5.000E+00 5.000E+00                      1.000E-01
   152    5.000E+00 5.000E+00                      1.000E-01
   153    5.000E+00 5.000E+00                      1.000E-01
   154    5.000E+00 5.000E+00                      1.000E-01
   155    5.000E+00 5.000E+00                      1.000E-01
   156    5.000E+00 5.000E+00                      1.000E-01
   157    5.000E+00 5.000E+00                      1.000E-01
   158    5.000E+00 5.000E+00                      1.000E-01
   159    5.000E+00 5.000E+00                      1.000E-01
   160    5.000E+00 5.000E+00                      1.000E-01



 
 SOLVING FOR HEAD 


 OUTER ITERATION SUMMARY
 -----------------------
 BT: Backtracking; LA: Linear Acceleration; UR: Under-relaxation

    Outer-Iteration  Inner-Iteration    Maximum Head Change  Maximum Head Change
        Number           Count               Value              Location
LA         1                7              -0.22314                   778           GWF-node number
LA         2                5              -0.13081E-01              1094           GWF-node number
LA         3                2              -0.70128E-03              1425           GWF-node number
LA         4                1              -0.32237E-04              1427           GWF-node number


     4 CALLS TO SPARSE MATRIX SOLVER PACKAGE  IN FLOW TIME STEP   1 STRESS PERIOD   8

 TOTAL OF       4OUTER ITERATIONS
  MAXIMUM CHANGE FOR EACH ITERATION:
   MAX. CHANGE        NODE  MAX. CHANGE        NODE  MAX. CHANGE        NODE  MAX. CHANGE        NODE  MAX. CHANGE        NODE
 ------------------------------------------------------------------------------------------------------------------------------------
  -0.22314    ,        778 -0.13081E-01,       1094 -0.70128E-03,       1425 -0.32237E-04,       1427

 OUTPUT CONTROL FOR STRESS PERIOD        8   TIME STEP        1
    SAVE HEAD FOR ALL LAYERS
    SAVE BUDGET
 UBDSV1U SAVING "         STORAGE" ON UNIT  50 AT TIME STEP      1, STRESS PERIOD      8
 UBDSV2U SAVING "   CONSTANT HEAD" ON UNIT  50 AT TIME STEP      1, STRESS PERIOD      8
 UBDSV1U SAVING "   FLOW JA FACE " ON UNIT  50 AT TIME STEP      1, STRESS PERIOD      8
 UBDSV4U SAVING "           WELLS" ON UNIT  50 AT TIME STEP      1, STRESS PERIOD      8
 UBDSV4U SAVING " HEAD DEP BOUNDS" ON UNIT  50 AT TIME STEP      1, STRESS PERIOD      8
 UBDSV3U SAVING "        RECHARGE" ON UNIT  50 AT TIME STEP      1, STRESS PERIOD      8
 UBDSV2U SAVING "  STREAM LEAKAGE" ON UNIT  50 AT TIME STEP      1, STRESS PERIOD      8




 HEAD WILL BE SAVED ON UNIT   51 AT END OF TIME STEP   1, STRESS PERIOD    8
1
  VOLUMETRIC BUDGET FOR ENTIRE MODEL AT END OF TIME STEP       1 IN STRESS PERIOD       8
  ---------------------------------------------------------------------------------------

     CUMULATIVE VOLUMES      L**3       RATES FOR THIS TIME STEP      L**3/T
     ------------------                 ------------------------

           IN:                                      IN:
           ---                                      ---
             STORAGE =      224840.2556               STORAGE =        2623.0593
       CONSTANT HEAD =           0.0000         CONSTANT HEAD =           0.0000
               WELLS =           0.0000                 WELLS =           0.0000
     HEAD DEP BOUNDS =       50030.2399       HEAD DEP BOUNDS =         450.2241
            RECHARGE =      638497.7909              RECHARGE =        1062.2120
      STREAM LEAKAGE =        2877.7590        STREAM LEAKAGE =          30.9202

            TOTAL IN =      916246.0454              TOTAL IN =        4166.4156

          OUT:                                     OUT:
          ----                                     ----
             STORAGE =      171072.8319               STORAGE =           0.0000
       CONSTANT HEAD =           0.0000         CONSTANT HEAD =           0.0000
               WELLS =      461279.9652                 WELLS =        3480.6514
     HEAD DEP BOUNDS =      145115.9284       HEAD DEP BOUNDS =         337.0008
            RECHARGE =           0.0000              RECHARGE =           0.0000
      STREAM LEAKAGE =      138778.9069        STREAM LEAKAGE =         348.8000

           TOTAL OUT =      916247.6324             TOTAL OUT =        4166.4522

            IN - OUT =          -1.5870              IN - OUT =      -3.6620E-02

 PERCENT DISCREPANCY =          -0.00     PERCENT DISCREPANCY =          -0.00






          TIME SUMMARY AT END OF TIME STEP         1 IN STRESS PERIOD         8
                    SECONDS     MINUTES      HOURS       DAYS        YEARS
                    -----------------------------------------------------------
   TIME STEP LENGTH 2.67840E+06  44640.      744.00      31.000     8.48734E-02
 STRESS PERIOD TIME 2.67840E+06  44640.      744.00      31.000     8.48734E-02
         TOTAL TIME 1.84896E+07 3.08160E+05  5136.0      214.00     0.58590    
1
1
                            STRESS PERIOD NO.    9, LENGTH =   31.00000    
                            -----------------------------------------------

                              NUMBER OF TIME STEPS =     1

                               MULTIPLIER FOR DELT =     1.000

                            INITIAL TIME STEP SIZE =   31.00000    

 WEL -- WELL PACKAGE, VERSION 7, 5/2/2005 INPUT READ FROM UNIT   20

 WELL NO.      NODE       STRESS FACTOR         
 -----------------------------------------------
      1        3324      -618.7    
      2        3409      -618.7    
      3        3737      -618.7    
      4        3971      -618.7    
      5        4092      -618.7    
      6        4297      -618.7    

      6 WELLS

 GHB -- GENERAL-HEAD BOUNDARY PACKAGE, VERSION 7, 5/2/2005
         INPUT READ FROM UNIT   30

 BOUND NO.     NODE         STAGE         CONDUCTANCE         
 -------------------------------------------------------------
      1        1473       33.50           70.00    
      2        1474       33.50           70.00    
      3        1475       33.50           70.00    
      4        1476       33.50           70.00    
      5        1477       33.50           70.00    
      6        1478       33.50           70.00    
      7        1479       33.50           70.00    
      8        1480       33.50           70.00    
      9        1481       33.50           70.00    
     10        1482       33.50           70.00    
     11        2972       33.50           70.00    
     12        2973       33.50           70.00    
     13        2974       33.50           70.00    
     14        2975       33.50           70.00    
     15        2976       33.50           70.00    
     16        2977       33.50           70.00    
     17        2978       33.50           70.00    
     18        2979       33.50           70.00    
     19        2980       33.50           70.00    
     20        2981       33.50           70.00    
     21        4471       33.50           70.00    
     22        4472       33.50           70.00    
     23        4473       33.50           70.00    
     24        4474       33.50           70.00    
     25        4475       33.50           70.00    
     26        4476       33.50           70.00    
     27        4477       33.50           70.00    
     28        4478       33.50           70.00    
     29        4479       33.50           70.00    
     30        4480       33.50           70.00    
     31        2999       35.50           70.00    
     32        3000       35.50           70.00    
     33        3001       35.50           70.00    
     34        3002       35.50           70.00    
     35        3003       35.50           70.00    
     36        3004       35.50           70.00    
     37        3005       35.50           70.00    
     38        3006       35.50           70.00    
     39        3007       35.50           70.00    
     40        3008       35.50           70.00    
     41        3009       35.50           70.00    
     42        3010       35.50           70.00    
     43        3011       35.50           70.00    
     44        3012       35.50           70.00    
     45        3013       35.50           70.00    
     46        3023       35.50           4.375    
     47        3027       35.50           17.50    
     48        3028       35.50           70.00    
     49        3029       35.50           70.00    
     50        3030       35.50           70.00    

     50 GHB CELLS

 RCH -- RECHARGE PACKAGE, VERSION 7, 5/2/2005 INPUT READ FROM UNIT   31



                           RECHARGE
 READING ON UNIT   31 WITH FORMAT: (1499E15.6)         



 CLASSIFICATION & COUNT OF STREAM SEGMENTS BASED ON SOURCE OF INFLOW:

                HEADWATER     DIVERSION     RECEIVES TRIBUTARY FLOW
                ---------     ---------     -----------------------
                     1              0             159



                    INPUT DATA FOR EACH STREAM SEGMENT
 ---------------------------------------------------------------------------------------------

 SEGMENT    SEG.     INFLOW   OVERLAND   STREAM    STREAM   ICALC  OUTFLOW  DIVERSION PRIORITY
    NO.    LENGTH     RATE     RUNOFF      ET       PPT.    METH.  TO SEG.  FROM SEG.    NO.

      1  6.250E+01 3.541E+03 0.000E+00 0.000E+00 0.000E+00    1        2        0        0
      2  6.250E+01 0.000E+00 0.000E+00 0.000E+00 0.000E+00    1        3        0        0
      3  6.250E+01 0.000E+00 0.000E+00 0.000E+00 0.000E+00    1        4        0        0
      4  6.250E+01 0.000E+00 0.000E+00 0.000E+00 0.000E+00    1        5        0        0
      5  6.250E+01 0.000E+00 0.000E+00 0.000E+00 0.000E+00    1        6        0        0
      6  6.250E+01 0.000E+00 0.000E+00 0.000E+00 0.000E+00    1        7        0        0
      7  6.250E+01 0.000E+00 0.000E+00 0.000E+00 0.000E+00    1        8        0        0
      8  6.250E+01 0.000E+00 0.000E+00 0.000E+00 0.000E+00    1        9        0        0
      9  6.250E+01 0.000E+00 0.000E+00 0.000E+00 0.000E+00    1       10        0        0
     10  6.250E+01 0.000E+00 0.000E+00 0.000E+00 0.000E+00    1       11        0        0
     11  6.250E+01 0.000E+00 0.000E+00 0.000E+00 0.000E+00    1       12        0        0
     12  6.250E+01 0.000E+00 0.000E+00 0.000E+00 0.000E+00    1       13        0        0
     13  6.250E+01 0.000E+00 0.000E+00 0.000E+00 0.000E+00    1       14        0        0
     14  6.250E+01 0.000E+00 0.000E+00 0.000E+00 0.000E+00    1       15        0        0
     15  6.250E+01 0.000E+00 0.000E+00 0.000E+00 0.000E+00    1       16        0        0
     16  6.250E+01 0.000E+00 0.000E+00 0.000E+00 0.000E+00    1       17        0        0
     17  6.250E+01 0.000E+00 0.000E+00 0.000E+00 0.000E+00    1       18        0        0
     18  6.250E+01 0.000E+00 0.000E+00 0.000E+00 0.000E+00    1       19        0        0
     19  6.250E+01 0.000E+00 0.000E+00 0.000E+00 0.000E+00    1       20        0        0
     20  6.250E+01 0.000E+00 0.000E+00 0.000E+00 0.000E+00    1       21        0        0
     21  6.250E+01 0.000E+00 0.000E+00 0.000E+00 0.000E+00    1       22        0        0
     22  6.250E+01 0.000E+00 0.000E+00 0.000E+00 0.000E+00    1       23        0        0
     23  6.250E+01 0.000E+00 0.000E+00 0.000E+00 0.000E+00    1       24        0        0
     24  6.250E+01 0.000E+00 0.000E+00 0.000E+00 0.000E+00    1       25        0        0
     25  6.250E+01 0.000E+00 0.000E+00 0.000E+00 0.000E+00    1       26        0        0
     26  6.250E+01 0.000E+00 0.000E+00 0.000E+00 0.000E+00    1       27        0        0
     27  6.250E+01 0.000E+00 0.000E+00 0.000E+00 0.000E+00    1       28        0        0
     28  6.250E+01 0.000E+00 0.000E+00 0.000E+00 0.000E+00    1       29        0        0
     29  6.250E+01 0.000E+00 0.000E+00 0.000E+00 0.000E+00    1       30        0        0
     30  6.250E+01 0.000E+00 0.000E+00 0.000E+00 0.000E+00    1       31        0        0
     31  6.250E+01 0.000E+00 0.000E+00 0.000E+00 0.000E+00    1       32        0        0
     32  6.250E+01 0.000E+00 0.000E+00 0.000E+00 0.000E+00    1       33        0        0
     33  6.250E+01 0.000E+00 0.000E+00 0.000E+00 0.000E+00    1       34        0        0
     34  6.250E+01 0.000E+00 0.000E+00 0.000E+00 0.000E+00    1       35        0        0
     35  6.250E+01 0.000E+00 0.000E+00 0.000E+00 0.000E+00    1       36        0        0
     36  6.250E+01 0.000E+00 0.000E+00 0.000E+00 0.000E+00    1       37        0        0
     37  6.250E+01 0.000E+00 0.000E+00 0.000E+00 0.000E+00    1       38        0        0
     38  6.250E+01 0.000E+00 0.000E+00 0.000E+00 0.000E+00    1       39        0        0
     39  6.250E+01 0.000E+00 0.000E+00 0.000E+00 0.000E+00    1       40        0        0
     40  6.250E+01 0.000E+00 0.000E+00 0.000E+00 0.000E+00    1       41        0        0
     41  6.250E+01 0.000E+00 0.000E+00 0.000E+00 0.000E+00    1       42        0        0
     42  6.250E+01 0.000E+00 0.000E+00 0.000E+00 0.000E+00    1       43        0        0
     43  6.250E+01 0.000E+00 0.000E+00 0.000E+00 0.000E+00    1       44        0        0
     44  6.250E+01 0.000E+00 0.000E+00 0.000E+00 0.000E+00    1       45        0        0
     45  6.250E+01 0.000E+00 0.000E+00 0.000E+00 0.000E+00    1       46        0        0
     46  6.250E+01 0.000E+00 0.000E+00 0.000E+00 0.000E+00    1       47        0        0
     47  6.250E+01 0.000E+00 0.000E+00 0.000E+00 0.000E+00    1       48        0        0
     48  6.250E+01 0.000E+00 0.000E+00 0.000E+00 0.000E+00    1       49        0        0
     49  6.250E+01 0.000E+00 0.000E+00 0.000E+00 0.000E+00    1       50        0        0
     50  6.250E+01 0.000E+00 0.000E+00 0.000E+00 0.000E+00    1       51        0        0
     51  6.250E+01 0.000E+00 0.000E+00 0.000E+00 0.000E+00    1       52        0        0
     52  6.250E+01 0.000E+00 0.000E+00 0.000E+00 0.000E+00    1       53        0        0
     53  6.250E+01 0.000E+00 0.000E+00 0.000E+00 0.000E+00    1       54        0        0
     54  6.250E+01 0.000E+00 0.000E+00 0.000E+00 0.000E+00    1       55        0        0
     55  6.250E+01 0.000E+00 0.000E+00 0.000E+00 0.000E+00    1       56        0        0
     56  6.250E+01 0.000E+00 0.000E+00 0.000E+00 0.000E+00    1       57        0        0
     57  6.250E+01 0.000E+00 0.000E+00 0.000E+00 0.000E+00    1       58        0        0
     58  6.250E+01 0.000E+00 0.000E+00 0.000E+00 0.000E+00    1       59        0        0
     59  6.250E+01 0.000E+00 0.000E+00 0.000E+00 0.000E+00    1       60        0        0
     60  6.250E+01 0.000E+00 0.000E+00 0.000E+00 0.000E+00    1       61        0        0
     61  6.250E+01 0.000E+00 0.000E+00 0.000E+00 0.000E+00    1       62        0        0
     62  6.250E+01 0.000E+00 0.000E+00 0.000E+00 0.000E+00    1       63        0        0
     63  6.250E+01 0.000E+00 0.000E+00 0.000E+00 0.000E+00    1       64        0        0
     64  6.250E+01 0.000E+00 0.000E+00 0.000E+00 0.000E+00    1       65        0        0
     65  6.250E+01 0.000E+00 0.000E+00 0.000E+00 0.000E+00    1       66        0        0
     66  6.250E+01 0.000E+00 0.000E+00 0.000E+00 0.000E+00    1       67        0        0
     67  6.250E+01 0.000E+00 0.000E+00 0.000E+00 0.000E+00    1       68        0        0
     68  6.250E+01 0.000E+00 0.000E+00 0.000E+00 0.000E+00    1       69        0        0
     69  6.250E+01 0.000E+00 0.000E+00 0.000E+00 0.000E+00    1       70        0        0
     70  6.250E+01 0.000E+00 0.000E+00 0.000E+00 0.000E+00    1       71        0        0
     71  6.250E+01 0.000E+00 0.000E+00 0.000E+00 0.000E+00    1       72        0        0
     72  6.250E+01 0.000E+00 0.000E+00 0.000E+00 0.000E+00    1       73        0        0
     73  6.250E+01 0.000E+00 0.000E+00 0.000E+00 0.000E+00    1       74        0        0
     74  6.250E+01 0.000E+00 0.000E+00 0.000E+00 0.000E+00    1       75        0        0
     75  6.250E+01 0.000E+00 0.000E+00 0.000E+00 0.000E+00    1       76        0        0
     76  6.250E+01 0.000E+00 0.000E+00 0.000E+00 0.000E+00    1       77        0        0
     77  6.250E+01 0.000E+00 0.000E+00 0.000E+00 0.000E+00    1       78        0        0
     78  6.250E+01 0.000E+00 0.000E+00 0.000E+00 0.000E+00    1       79        0        0
     79  6.250E+01 0.000E+00 0.000E+00 0.000E+00 0.000E+00    1       80        0        0
     80  6.250E+01 0.000E+00 0.000E+00 0.000E+00 0.000E+00    1       81        0        0
     81  6.250E+01 0.000E+00 0.000E+00 0.000E+00 0.000E+00    1       82        0        0
     82  6.250E+01 0.000E+00 0.000E+00 0.000E+00 0.000E+00    1       83        0        0
     83  6.250E+01 0.000E+00 0.000E+00 0.000E+00 0.000E+00    1       84        0        0
     84  6.250E+01 0.000E+00 0.000E+00 0.000E+00 0.000E+00    1       85        0        0
     85  6.250E+01 0.000E+00 0.000E+00 0.000E+00 0.000E+00    1       86        0        0
     86  6.250E+01 0.000E+00 0.000E+00 0.000E+00 0.000E+00    1       87        0        0
     87  6.250E+01 0.000E+00 0.000E+00 0.000E+00 0.000E+00    1       88        0        0
     88  6.250E+01 0.000E+00 0.000E+00 0.000E+00 0.000E+00    1       89        0        0
     89  6.250E+01 0.000E+00 0.000E+00 0.000E+00 0.000E+00    1       90        0        0
     90  6.250E+01 0.000E+00 0.000E+00 0.000E+00 0.000E+00    1       91        0        0
     91  6.250E+01 0.000E+00 0.000E+00 0.000E+00 0.000E+00    1       92        0        0
     92  6.250E+01 0.000E+00 0.000E+00 0.000E+00 0.000E+00    1       93        0        0
     93  6.250E+01 0.000E+00 0.000E+00 0.000E+00 0.000E+00    1       94        0        0
     94  6.250E+01 0.000E+00 0.000E+00 0.000E+00 0.000E+00    1       95        0        0
     95  6.250E+01 0.000E+00 0.000E+00 0.000E+00 0.000E+00    1       96        0        0
     96  6.250E+01 0.000E+00 0.000E+00 0.000E+00 0.000E+00    1       97        0        0
     97  6.250E+01 0.000E+00 0.000E+00 0.000E+00 0.000E+00    1       98        0        0
     98  6.250E+01 0.000E+00 0.000E+00 0.000E+00 0.000E+00    1       99        0        0
     99  6.250E+01 0.000E+00 0.000E+00 0.000E+00 0.000E+00    1      100        0        0
    100  6.250E+01 0.000E+00 0.000E+00 0.000E+00 0.000E+00    1      101        0        0
    101  6.250E+01 0.000E+00 0.000E+00 0.000E+00 0.000E+00    1      102        0        0
    102  6.250E+01 0.000E+00 0.000E+00 0.000E+00 0.000E+00    1      103        0        0
    103  6.250E+01 0.000E+00 0.000E+00 0.000E+00 0.000E+00    1      104        0        0
    104  6.250E+01 0.000E+00 0.000E+00 0.000E+00 0.000E+00    1      105        0        0
    105  6.250E+01 0.000E+00 0.000E+00 0.000E+00 0.000E+00    1      106        0        0
    106  6.250E+01 0.000E+00 0.000E+00 0.000E+00 0.000E+00    1      107        0        0
    107  6.250E+01 0.000E+00 0.000E+00 0.000E+00 0.000E+00    1      108        0        0
    108  6.250E+01 0.000E+00 0.000E+00 0.000E+00 0.000E+00    1      109        0        0
    109  6.250E+01 0.000E+00 0.000E+00 0.000E+00 0.000E+00    1      110        0        0
    110  6.250E+01 0.000E+00 0.000E+00 0.000E+00 0.000E+00    1      111        0        0
    111  6.250E+01 0.000E+00 0.000E+00 0.000E+00 0.000E+00    1      112        0        0
    112  6.250E+01 0.000E+00 0.000E+00 0.000E+00 0.000E+00    1      113        0        0
    113  6.250E+01 0.000E+00 0.000E+00 0.000E+00 0.000E+00    1      114        0        0
    114  6.250E+01 0.000E+00 0.000E+00 0.000E+00 0.000E+00    1      115        0        0
    115  6.250E+01 0.000E+00 0.000E+00 0.000E+00 0.000E+00    1      116        0        0
    116  6.250E+01 0.000E+00 0.000E+00 0.000E+00 0.000E+00    1      117        0        0
    117  6.250E+01 0.000E+00 0.000E+00 0.000E+00 0.000E+00    1      118        0        0
    118  6.250E+01 0.000E+00 0.000E+00 0.000E+00 0.000E+00    1      119        0        0
    119  6.250E+01 0.000E+00 0.000E+00 0.000E+00 0.000E+00    1      120        0        0
    120  6.250E+01 0.000E+00 0.000E+00 0.000E+00 0.000E+00    1      121        0        0
    121  6.250E+01 0.000E+00 0.000E+00 0.000E+00 0.000E+00    1      122        0        0
    122  6.250E+01 0.000E+00 0.000E+00 0.000E+00 0.000E+00    1      123        0        0
    123  6.250E+01 0.000E+00 0.000E+00 0.000E+00 0.000E+00    1      124        0        0
    124  6.250E+01 0.000E+00 0.000E+00 0.000E+00 0.000E+00    1      125        0        0
    125  6.250E+01 0.000E+00 0.000E+00 0.000E+00 0.000E+00    1      126        0        0
    126  6.250E+01 0.000E+00 0.000E+00 0.000E+00 0.000E+00    1      127        0        0
    127  6.250E+01 0.000E+00 0.000E+00 0.000E+00 0.000E+00    1      128        0        0
    128  6.250E+01 0.000E+00 0.000E+00 0.000E+00 0.000E+00    1      129        0        0
    129  6.250E+01 0.000E+00 0.000E+00 0.000E+00 0.000E+00    1      130        0        0
    130  6.250E+01 0.000E+00 0.000E+00 0.000E+00 0.000E+00    1      131        0        0
    131  6.250E+01 0.000E+00 0.000E+00 0.000E+00 0.000E+00    1      132        0        0
    132  6.250E+01 0.000E+00 0.000E+00 0.000E+00 0.000E+00    1      133        0        0
    133  6.250E+01 0.000E+00 0.000E+00 0.000E+00 0.000E+00    1      134        0        0
    134  6.250E+01 0.000E+00 0.000E+00 0.000E+00 0.000E+00    1      135        0        0
    135  6.250E+01 0.000E+00 0.000E+00 0.000E+00 0.000E+00    1      136        0        0
    136  6.250E+01 0.000E+00 0.000E+00 0.000E+00 0.000E+00    1      137        0        0
    137  6.250E+01 0.000E+00 0.000E+00 0.000E+00 0.000E+00    1      138        0        0
    138  6.250E+01 0.000E+00 0.000E+00 0.000E+00 0.000E+00    1      139        0        0
    139  6.250E+01 0.000E+00 0.000E+00 0.000E+00 0.000E+00    1      140        0        0
    140  6.250E+01 0.000E+00 0.000E+00 0.000E+00 0.000E+00    1      141        0        0
    141  6.250E+01 0.000E+00 0.000E+00 0.000E+00 0.000E+00    1      142        0        0
    142  6.250E+01 0.000E+00 0.000E+00 0.000E+00 0.000E+00    1      143        0        0
    143  6.250E+01 0.000E+00 0.000E+00 0.000E+00 0.000E+00    1      144        0        0
    144  6.250E+01 0.000E+00 0.000E+00 0.000E+00 0.000E+00    1      145        0        0
    145  6.250E+01 0.000E+00 0.000E+00 0.000E+00 0.000E+00    1      146        0        0
    146  6.250E+01 0.000E+00 0.000E+00 0.000E+00 0.000E+00    1      147        0        0
    147  6.250E+01 0.000E+00 0.000E+00 0.000E+00 0.000E+00    1      148        0        0
    148  6.250E+01 0.000E+00 0.000E+00 0.000E+00 0.000E+00    1      149        0        0
    149  6.250E+01 0.000E+00 0.000E+00 0.000E+00 0.000E+00    1      150        0        0
    150  6.250E+01 0.000E+00 0.000E+00 0.000E+00 0.000E+00    1      151        0        0
    151  6.250E+01 0.000E+00 0.000E+00 0.000E+00 0.000E+00    1      152        0        0
    152  6.250E+01 0.000E+00 0.000E+00 0.000E+00 0.000E+00    1      153        0        0
    153  6.250E+01 0.000E+00 0.000E+00 0.000E+00 0.000E+00    1      154        0        0
    154  6.250E+01 0.000E+00 0.000E+00 0.000E+00 0.000E+00    1      155        0        0
    155  6.250E+01 0.000E+00 0.000E+00 0.000E+00 0.000E+00    1      156        0        0
    156  6.250E+01 0.000E+00 0.000E+00 0.000E+00 0.000E+00    1      157        0        0
    157  6.250E+01 0.000E+00 0.000E+00 0.000E+00 0.000E+00    1      158        0        0
    158  6.250E+01 0.000E+00 0.000E+00 0.000E+00 0.000E+00    1      159        0        0
    159  6.250E+01 0.000E+00 0.000E+00 0.000E+00 0.000E+00    1      160        0        0
    160  6.250E+01 0.000E+00 0.000E+00 0.000E+00 0.000E+00    1      161        0        0


         STREAMBED PROPERTIES AND STREAM DIMENSIONS

 SEGMENT     WIDTH OF STREAM     DEPTH OF STREAM    STREAM ROUGHNESS
    No.     UPPER     LOWER     UPPER     LOWER     CHANNEL      BANK

     1    5.000E+00 5.000E+00                      1.000E-01
     2    5.000E+00 5.000E+00                      1.000E-01
     3    5.000E+00 5.000E+00                      1.000E-01
     4    5.000E+00 5.000E+00                      1.000E-01
     5    5.000E+00 5.000E+00                      1.000E-01
     6    5.000E+00 5.000E+00                      1.000E-01
     7    5.000E+00 5.000E+00                      1.000E-01
     8    5.000E+00 5.000E+00                      1.000E-01
     9    5.000E+00 5.000E+00                      1.000E-01
    10    5.000E+00 5.000E+00                      1.000E-01
    11    5.000E+00 5.000E+00                      1.000E-01
    12    5.000E+00 5.000E+00                      1.000E-01
    13    5.000E+00 5.000E+00                      1.000E-01
    14    5.000E+00 5.000E+00                      1.000E-01
    15    5.000E+00 5.000E+00                      1.000E-01
    16    5.000E+00 5.000E+00                      1.000E-01
    17    5.000E+00 5.000E+00                      1.000E-01
    18    5.000E+00 5.000E+00                      1.000E-01
    19    5.000E+00 5.000E+00                      1.000E-01
    20    5.000E+00 5.000E+00                      1.000E-01
    21    5.000E+00 5.000E+00                      1.000E-01
    22    5.000E+00 5.000E+00                      1.000E-01
    23    5.000E+00 5.000E+00                      1.000E-01
    24    5.000E+00 5.000E+00                      1.000E-01
    25    5.000E+00 5.000E+00                      1.000E-01
    26    5.000E+00 5.000E+00                      1.000E-01
    27    5.000E+00 5.000E+00                      1.000E-01
    28    5.000E+00 5.000E+00                      1.000E-01
    29    5.000E+00 5.000E+00                      1.000E-01
    30    5.000E+00 5.000E+00                      1.000E-01
    31    5.000E+00 5.000E+00                      1.000E-01
    32    5.000E+00 5.000E+00                      1.000E-01
    33    5.000E+00 5.000E+00                      1.000E-01
    34    5.000E+00 5.000E+00                      1.000E-01
    35    5.000E+00 5.000E+00                      1.000E-01
    36    5.000E+00 5.000E+00                      1.000E-01
    37    5.000E+00 5.000E+00                      1.000E-01
    38    5.000E+00 5.000E+00                      1.000E-01
    39    5.000E+00 5.000E+00                      1.000E-01
    40    5.000E+00 5.000E+00                      1.000E-01
    41    5.000E+00 5.000E+00                      1.000E-01
    42    5.000E+00 5.000E+00                      1.000E-01
    43    5.000E+00 5.000E+00                      1.000E-01
    44    5.000E+00 5.000E+00                      1.000E-01
    45    5.000E+00 5.000E+00                      1.000E-01
    46    5.000E+00 5.000E+00                      1.000E-01
    47    5.000E+00 5.000E+00                      1.000E-01
    48    5.000E+00 5.000E+00                      1.000E-01
    49    5.000E+00 5.000E+00                      1.000E-01
    50    5.000E+00 5.000E+00                      1.000E-01
    51    5.000E+00 5.000E+00                      1.000E-01
    52    5.000E+00 5.000E+00                      1.000E-01
    53    5.000E+00 5.000E+00                      1.000E-01
    54    5.000E+00 5.000E+00                      1.000E-01
    55    5.000E+00 5.000E+00                      1.000E-01
    56    5.000E+00 5.000E+00                      1.000E-01
    57    5.000E+00 5.000E+00                      1.000E-01
    58    5.000E+00 5.000E+00                      1.000E-01
    59    5.000E+00 5.000E+00                      1.000E-01
    60    5.000E+00 5.000E+00                      1.000E-01
    61    5.000E+00 5.000E+00                      1.000E-01
    62    5.000E+00 5.000E+00                      1.000E-01
    63    5.000E+00 5.000E+00                      1.000E-01
    64    5.000E+00 5.000E+00                      1.000E-01
    65    5.000E+00 5.000E+00                      1.000E-01
    66    5.000E+00 5.000E+00                      1.000E-01
    67    5.000E+00 5.000E+00                      1.000E-01
    68    5.000E+00 5.000E+00                      1.000E-01
    69    5.000E+00 5.000E+00                      1.000E-01
    70    5.000E+00 5.000E+00                      1.000E-01
    71    5.000E+00 5.000E+00                      1.000E-01
    72    5.000E+00 5.000E+00                      1.000E-01
    73    5.000E+00 5.000E+00                      1.000E-01
    74    5.000E+00 5.000E+00                      1.000E-01
    75    5.000E+00 5.000E+00                      1.000E-01
    76    5.000E+00 5.000E+00                      1.000E-01
    77    5.000E+00 5.000E+00                      1.000E-01
    78    5.000E+00 5.000E+00                      1.000E-01
    79    5.000E+00 5.000E+00                      1.000E-01
    80    5.000E+00 5.000E+00                      1.000E-01
    81    5.000E+00 5.000E+00                      1.000E-01
    82    5.000E+00 5.000E+00                      1.000E-01
    83    5.000E+00 5.000E+00                      1.000E-01
    84    5.000E+00 5.000E+00                      1.000E-01
    85    5.000E+00 5.000E+00                      1.000E-01
    86    5.000E+00 5.000E+00                      1.000E-01
    87    5.000E+00 5.000E+00                      1.000E-01
    88    5.000E+00 5.000E+00                      1.000E-01
    89    5.000E+00 5.000E+00                      1.000E-01
    90    5.000E+00 5.000E+00                      1.000E-01
    91    5.000E+00 5.000E+00                      1.000E-01
    92    5.000E+00 5.000E+00                      1.000E-01
    93    5.000E+00 5.000E+00                      1.000E-01
    94    5.000E+00 5.000E+00                      1.000E-01
    95    5.000E+00 5.000E+00                      1.000E-01
    96    5.000E+00 5.000E+00                      1.000E-01
    97    5.000E+00 5.000E+00                      1.000E-01
    98    5.000E+00 5.000E+00                      1.000E-01
    99    5.000E+00 5.000E+00                      1.000E-01
   100    5.000E+00 5.000E+00                      1.000E-01
   101    5.000E+00 5.000E+00                      1.000E-01
   102    5.000E+00 5.000E+00                      1.000E-01
   103    5.000E+00 5.000E+00                      1.000E-01
   104    5.000E+00 5.000E+00                      1.000E-01
   105    5.000E+00 5.000E+00                      1.000E-01
   106    5.000E+00 5.000E+00                      1.000E-01
   107    5.000E+00 5.000E+00                      1.000E-01
   108    5.000E+00 5.000E+00                      1.000E-01
   109    5.000E+00 5.000E+00                      1.000E-01
   110    5.000E+00 5.000E+00                      1.000E-01
   111    5.000E+00 5.000E+00                      1.000E-01
   112    5.000E+00 5.000E+00                      1.000E-01
   113    5.000E+00 5.000E+00                      1.000E-01
   114    5.000E+00 5.000E+00                      1.000E-01
   115    5.000E+00 5.000E+00                      1.000E-01
   116    5.000E+00 5.000E+00                      1.000E-01
   117    5.000E+00 5.000E+00                      1.000E-01
   118    5.000E+00 5.000E+00                      1.000E-01
   119    5.000E+00 5.000E+00                      1.000E-01
   120    5.000E+00 5.000E+00                      1.000E-01
   121    5.000E+00 5.000E+00                      1.000E-01
   122    5.000E+00 5.000E+00                      1.000E-01
   123    5.000E+00 5.000E+00                      1.000E-01
   124    5.000E+00 5.000E+00                      1.000E-01
   125    5.000E+00 5.000E+00                      1.000E-01
   126    5.000E+00 5.000E+00                      1.000E-01
   127    5.000E+00 5.000E+00                      1.000E-01
   128    5.000E+00 5.000E+00                      1.000E-01
   129    5.000E+00 5.000E+00                      1.000E-01
   130    5.000E+00 5.000E+00                      1.000E-01
   131    5.000E+00 5.000E+00                      1.000E-01
   132    5.000E+00 5.000E+00                      1.000E-01
   133    5.000E+00 5.000E+00                      1.000E-01
   134    5.000E+00 5.000E+00                      1.000E-01
   135    5.000E+00 5.000E+00                      1.000E-01
   136    5.000E+00 5.000E+00                      1.000E-01
   137    5.000E+00 5.000E+00                      1.000E-01
   138    5.000E+00 5.000E+00                      1.000E-01
   139    5.000E+00 5.000E+00                      1.000E-01
   140    5.000E+00 5.000E+00                      1.000E-01
   141    5.000E+00 5.000E+00                      1.000E-01
   142    5.000E+00 5.000E+00                      1.000E-01
   143    5.000E+00 5.000E+00                      1.000E-01
   144    5.000E+00 5.000E+00                      1.000E-01
   145    5.000E+00 5.000E+00                      1.000E-01
   146    5.000E+00 5.000E+00                      1.000E-01
   147    5.000E+00 5.000E+00                      1.000E-01
   148    5.000E+00 5.000E+00                      1.000E-01
   149    5.000E+00 5.000E+00                      1.000E-01
   150    5.000E+00 5.000E+00                      1.000E-01
   151    5.000E+00 5.000E+00                      1.000E-01
   152    5.000E+00 5.000E+00                      1.000E-01
   153    5.000E+00 5.000E+00                      1.000E-01
   154    5.000E+00 5.000E+00                      1.000E-01
   155    5.000E+00 5.000E+00                      1.000E-01
   156    5.000E+00 5.000E+00                      1.000E-01
   157    5.000E+00 5.000E+00                      1.000E-01
   158    5.000E+00 5.000E+00                      1.000E-01
   159    5.000E+00 5.000E+00                      1.000E-01
   160    5.000E+00 5.000E+00                      1.000E-01



 
 SOLVING FOR HEAD 


 OUTER ITERATION SUMMARY
 -----------------------
 BT: Backtracking; LA: Linear Acceleration; UR: Under-relaxation

    Outer-Iteration  Inner-Iteration    Maximum Head Change  Maximum Head Change
        Number           Count               Value              Location
LA         1                7              -0.23685                  4092           GWF-node number
LA         2                5              -0.16084E-01              1094           GWF-node number
LA         3                2              -0.69306E-03              1094           GWF-node number
LA         4                1              -0.37292E-04              1427           GWF-node number


     4 CALLS TO SPARSE MATRIX SOLVER PACKAGE  IN FLOW TIME STEP   1 STRESS PERIOD   9

 TOTAL OF       4OUTER ITERATIONS
  MAXIMUM CHANGE FOR EACH ITERATION:
   MAX. CHANGE        NODE  MAX. CHANGE        NODE  MAX. CHANGE        NODE  MAX. CHANGE        NODE  MAX. CHANGE        NODE
 ------------------------------------------------------------------------------------------------------------------------------------
  -0.23685    ,       4092 -0.16084E-01,       1094 -0.69306E-03,       1094 -0.37292E-04,       1427

 OUTPUT CONTROL FOR STRESS PERIOD        9   TIME STEP        1
    SAVE HEAD FOR ALL LAYERS
    SAVE BUDGET
 UBDSV1U SAVING "         STORAGE" ON UNIT  50 AT TIME STEP      1, STRESS PERIOD      9
 UBDSV2U SAVING "   CONSTANT HEAD" ON UNIT  50 AT TIME STEP      1, STRESS PERIOD      9
 UBDSV1U SAVING "   FLOW JA FACE " ON UNIT  50 AT TIME STEP      1, STRESS PERIOD      9
 UBDSV4U SAVING "           WELLS" ON UNIT  50 AT TIME STEP      1, STRESS PERIOD      9
 UBDSV4U SAVING " HEAD DEP BOUNDS" ON UNIT  50 AT TIME STEP      1, STRESS PERIOD      9
 UBDSV3U SAVING "        RECHARGE" ON UNIT  50 AT TIME STEP      1, STRESS PERIOD      9
 UBDSV2U SAVING "  STREAM LEAKAGE" ON UNIT  50 AT TIME STEP      1, STRESS PERIOD      9




 HEAD WILL BE SAVED ON UNIT   51 AT END OF TIME STEP   1, STRESS PERIOD    9
1
  VOLUMETRIC BUDGET FOR ENTIRE MODEL AT END OF TIME STEP       1 IN STRESS PERIOD       9
  ---------------------------------------------------------------------------------------

     CUMULATIVE VOLUMES      L**3       RATES FOR THIS TIME STEP      L**3/T
     ------------------                 ------------------------

           IN:                                      IN:
           ---                                      ---
             STORAGE =      298213.9762               STORAGE =        2366.8942
       CONSTANT HEAD =           0.0000         CONSTANT HEAD =           0.0000
               WELLS =           0.0000                 WELLS =           0.0000
     HEAD DEP BOUNDS =       67807.9433       HEAD DEP BOUNDS =         573.4743
            RECHARGE =      666913.5935              RECHARGE =         916.6388
      STREAM LEAKAGE =       10532.2813        STREAM LEAKAGE =         246.9201

            TOTAL IN =     1043467.7944              TOTAL IN =        4103.9274

          OUT:                                     OUT:
          ----                                     ----
             STORAGE =      171072.8319               STORAGE =           0.0000
       CONSTANT HEAD =           0.0000         CONSTANT HEAD =           0.0000
               WELLS =      576353.9330                 WELLS =        3712.0635
     HEAD DEP BOUNDS =      150814.7186       HEAD DEP BOUNDS =         183.8319
            RECHARGE =           0.0000              RECHARGE =           0.0000
      STREAM LEAKAGE =      145228.6060        STREAM LEAKAGE =         208.0548

           TOTAL OUT =     1043470.0894             TOTAL OUT =        4103.9502

            IN - OUT =          -2.2950              IN - OUT =      -2.2839E-02

 PERCENT DISCREPANCY =          -0.00     PERCENT DISCREPANCY =          -0.00






          TIME SUMMARY AT END OF TIME STEP         1 IN STRESS PERIOD         9
                    SECONDS     MINUTES      HOURS       DAYS        YEARS
                    -----------------------------------------------------------
   TIME STEP LENGTH 2.67840E+06  44640.      744.00      31.000     8.48734E-02
 STRESS PERIOD TIME 2.67840E+06  44640.      744.00      31.000     8.48734E-02
         TOTAL TIME 2.11680E+07 3.52800E+05  5880.0      245.00     0.67077    
1
1
                            STRESS PERIOD NO.   10, LENGTH =   30.00000    
                            -----------------------------------------------

                              NUMBER OF TIME STEPS =     1

                               MULTIPLIER FOR DELT =     1.000

                            INITIAL TIME STEP SIZE =   30.00000    

 WEL -- WELL PACKAGE, VERSION 7, 5/2/2005 INPUT READ FROM UNIT   20

 WELL NO.      NODE       STRESS FACTOR         
 -----------------------------------------------
      1        3324      -586.3    
      2        3409      -586.3    
      3        3737      -586.3    
      4        3971      -586.3    
      5        4092      -586.3    
      6        4297      -586.3    

      6 WELLS

 GHB -- GENERAL-HEAD BOUNDARY PACKAGE, VERSION 7, 5/2/2005
         INPUT READ FROM UNIT   30

 BOUND NO.     NODE         STAGE         CONDUCTANCE         
 -------------------------------------------------------------
      1        1473       33.50           70.00    
      2        1474       33.50           70.00    
      3        1475       33.50           70.00    
      4        1476       33.50           70.00    
      5        1477       33.50           70.00    
      6        1478       33.50           70.00    
      7        1479       33.50           70.00    
      8        1480       33.50           70.00    
      9        1481       33.50           70.00    
     10        1482       33.50           70.00    
     11        2972       33.50           70.00    
     12        2973       33.50           70.00    
     13        2974       33.50           70.00    
     14        2975       33.50           70.00    
     15        2976       33.50           70.00    
     16        2977       33.50           70.00    
     17        2978       33.50           70.00    
     18        2979       33.50           70.00    
     19        2980       33.50           70.00    
     20        2981       33.50           70.00    
     21        4471       33.50           70.00    
     22        4472       33.50           70.00    
     23        4473       33.50           70.00    
     24        4474       33.50           70.00    
     25        4475       33.50           70.00    
     26        4476       33.50           70.00    
     27        4477       33.50           70.00    
     28        4478       33.50           70.00    
     29        4479       33.50           70.00    
     30        4480       33.50           70.00    
     31        2999       35.50           70.00    
     32        3000       35.50           70.00    
     33        3001       35.50           70.00    
     34        3002       35.50           70.00    
     35        3003       35.50           70.00    
     36        3004       35.50           70.00    
     37        3005       35.50           70.00    
     38        3006       35.50           70.00    
     39        3007       35.50           70.00    
     40        3008       35.50           70.00    
     41        3009       35.50           70.00    
     42        3010       35.50           70.00    
     43        3011       35.50           70.00    
     44        3012       35.50           70.00    
     45        3013       35.50           70.00    
     46        3023       35.50           4.375    
     47        3027       35.50           17.50    
     48        3028       35.50           70.00    
     49        3029       35.50           70.00    
     50        3030       35.50           70.00    

     50 GHB CELLS

 RCH -- RECHARGE PACKAGE, VERSION 7, 5/2/2005 INPUT READ FROM UNIT   31



                           RECHARGE
 READING ON UNIT   31 WITH FORMAT: (1499E15.6)         



 CLASSIFICATION & COUNT OF STREAM SEGMENTS BASED ON SOURCE OF INFLOW:

                HEADWATER     DIVERSION     RECEIVES TRIBUTARY FLOW
                ---------     ---------     -----------------------
                     1              0             159



                    INPUT DATA FOR EACH STREAM SEGMENT
 ---------------------------------------------------------------------------------------------

 SEGMENT    SEG.     INFLOW   OVERLAND   STREAM    STREAM   ICALC  OUTFLOW  DIVERSION PRIORITY
    NO.    LENGTH     RATE     RUNOFF      ET       PPT.    METH.  TO SEG.  FROM SEG.    NO.

      1  6.250E+01 4.859E+03 0.000E+00 0.000E+00 0.000E+00    1        2        0        0
      2  6.250E+01 0.000E+00 0.000E+00 0.000E+00 0.000E+00    1        3        0        0
      3  6.250E+01 0.000E+00 0.000E+00 0.000E+00 0.000E+00    1        4        0        0
      4  6.250E+01 0.000E+00 0.000E+00 0.000E+00 0.000E+00    1        5        0        0
      5  6.250E+01 0.000E+00 0.000E+00 0.000E+00 0.000E+00    1        6        0        0
      6  6.250E+01 0.000E+00 0.000E+00 0.000E+00 0.000E+00    1        7        0        0
      7  6.250E+01 0.000E+00 0.000E+00 0.000E+00 0.000E+00    1        8        0        0
      8  6.250E+01 0.000E+00 0.000E+00 0.000E+00 0.000E+00    1        9        0        0
      9  6.250E+01 0.000E+00 0.000E+00 0.000E+00 0.000E+00    1       10        0        0
     10  6.250E+01 0.000E+00 0.000E+00 0.000E+00 0.000E+00    1       11        0        0
     11  6.250E+01 0.000E+00 0.000E+00 0.000E+00 0.000E+00    1       12        0        0
     12  6.250E+01 0.000E+00 0.000E+00 0.000E+00 0.000E+00    1       13        0        0
     13  6.250E+01 0.000E+00 0.000E+00 0.000E+00 0.000E+00    1       14        0        0
     14  6.250E+01 0.000E+00 0.000E+00 0.000E+00 0.000E+00    1       15        0        0
     15  6.250E+01 0.000E+00 0.000E+00 0.000E+00 0.000E+00    1       16        0        0
     16  6.250E+01 0.000E+00 0.000E+00 0.000E+00 0.000E+00    1       17        0        0
     17  6.250E+01 0.000E+00 0.000E+00 0.000E+00 0.000E+00    1       18        0        0
     18  6.250E+01 0.000E+00 0.000E+00 0.000E+00 0.000E+00    1       19        0        0
     19  6.250E+01 0.000E+00 0.000E+00 0.000E+00 0.000E+00    1       20        0        0
     20  6.250E+01 0.000E+00 0.000E+00 0.000E+00 0.000E+00    1       21        0        0
     21  6.250E+01 0.000E+00 0.000E+00 0.000E+00 0.000E+00    1       22        0        0
     22  6.250E+01 0.000E+00 0.000E+00 0.000E+00 0.000E+00    1       23        0        0
     23  6.250E+01 0.000E+00 0.000E+00 0.000E+00 0.000E+00    1       24        0        0
     24  6.250E+01 0.000E+00 0.000E+00 0.000E+00 0.000E+00    1       25        0        0
     25  6.250E+01 0.000E+00 0.000E+00 0.000E+00 0.000E+00    1       26        0        0
     26  6.250E+01 0.000E+00 0.000E+00 0.000E+00 0.000E+00    1       27        0        0
     27  6.250E+01 0.000E+00 0.000E+00 0.000E+00 0.000E+00    1       28        0        0
     28  6.250E+01 0.000E+00 0.000E+00 0.000E+00 0.000E+00    1       29        0        0
     29  6.250E+01 0.000E+00 0.000E+00 0.000E+00 0.000E+00    1       30        0        0
     30  6.250E+01 0.000E+00 0.000E+00 0.000E+00 0.000E+00    1       31        0        0
     31  6.250E+01 0.000E+00 0.000E+00 0.000E+00 0.000E+00    1       32        0        0
     32  6.250E+01 0.000E+00 0.000E+00 0.000E+00 0.000E+00    1       33        0        0
     33  6.250E+01 0.000E+00 0.000E+00 0.000E+00 0.000E+00    1       34        0        0
     34  6.250E+01 0.000E+00 0.000E+00 0.000E+00 0.000E+00    1       35        0        0
     35  6.250E+01 0.000E+00 0.000E+00 0.000E+00 0.000E+00    1       36        0        0
     36  6.250E+01 0.000E+00 0.000E+00 0.000E+00 0.000E+00    1       37        0        0
     37  6.250E+01 0.000E+00 0.000E+00 0.000E+00 0.000E+00    1       38        0        0
     38  6.250E+01 0.000E+00 0.000E+00 0.000E+00 0.000E+00    1       39        0        0
     39  6.250E+01 0.000E+00 0.000E+00 0.000E+00 0.000E+00    1       40        0        0
     40  6.250E+01 0.000E+00 0.000E+00 0.000E+00 0.000E+00    1       41        0        0
     41  6.250E+01 0.000E+00 0.000E+00 0.000E+00 0.000E+00    1       42        0        0
     42  6.250E+01 0.000E+00 0.000E+00 0.000E+00 0.000E+00    1       43        0        0
     43  6.250E+01 0.000E+00 0.000E+00 0.000E+00 0.000E+00    1       44        0        0
     44  6.250E+01 0.000E+00 0.000E+00 0.000E+00 0.000E+00    1       45        0        0
     45  6.250E+01 0.000E+00 0.000E+00 0.000E+00 0.000E+00    1       46        0        0
     46  6.250E+01 0.000E+00 0.000E+00 0.000E+00 0.000E+00    1       47        0        0
     47  6.250E+01 0.000E+00 0.000E+00 0.000E+00 0.000E+00    1       48        0        0
     48  6.250E+01 0.000E+00 0.000E+00 0.000E+00 0.000E+00    1       49        0        0
     49  6.250E+01 0.000E+00 0.000E+00 0.000E+00 0.000E+00    1       50        0        0
     50  6.250E+01 0.000E+00 0.000E+00 0.000E+00 0.000E+00    1       51        0        0
     51  6.250E+01 0.000E+00 0.000E+00 0.000E+00 0.000E+00    1       52        0        0
     52  6.250E+01 0.000E+00 0.000E+00 0.000E+00 0.000E+00    1       53        0        0
     53  6.250E+01 0.000E+00 0.000E+00 0.000E+00 0.000E+00    1       54        0        0
     54  6.250E+01 0.000E+00 0.000E+00 0.000E+00 0.000E+00    1       55        0        0
     55  6.250E+01 0.000E+00 0.000E+00 0.000E+00 0.000E+00    1       56        0        0
     56  6.250E+01 0.000E+00 0.000E+00 0.000E+00 0.000E+00    1       57        0        0
     57  6.250E+01 0.000E+00 0.000E+00 0.000E+00 0.000E+00    1       58        0        0
     58  6.250E+01 0.000E+00 0.000E+00 0.000E+00 0.000E+00    1       59        0        0
     59  6.250E+01 0.000E+00 0.000E+00 0.000E+00 0.000E+00    1       60        0        0
     60  6.250E+01 0.000E+00 0.000E+00 0.000E+00 0.000E+00    1       61        0        0
     61  6.250E+01 0.000E+00 0.000E+00 0.000E+00 0.000E+00    1       62        0        0
     62  6.250E+01 0.000E+00 0.000E+00 0.000E+00 0.000E+00    1       63        0        0
     63  6.250E+01 0.000E+00 0.000E+00 0.000E+00 0.000E+00    1       64        0        0
     64  6.250E+01 0.000E+00 0.000E+00 0.000E+00 0.000E+00    1       65        0        0
     65  6.250E+01 0.000E+00 0.000E+00 0.000E+00 0.000E+00    1       66        0        0
     66  6.250E+01 0.000E+00 0.000E+00 0.000E+00 0.000E+00    1       67        0        0
     67  6.250E+01 0.000E+00 0.000E+00 0.000E+00 0.000E+00    1       68        0        0
     68  6.250E+01 0.000E+00 0.000E+00 0.000E+00 0.000E+00    1       69        0        0
     69  6.250E+01 0.000E+00 0.000E+00 0.000E+00 0.000E+00    1       70        0        0
     70  6.250E+01 0.000E+00 0.000E+00 0.000E+00 0.000E+00    1       71        0        0
     71  6.250E+01 0.000E+00 0.000E+00 0.000E+00 0.000E+00    1       72        0        0
     72  6.250E+01 0.000E+00 0.000E+00 0.000E+00 0.000E+00    1       73        0        0
     73  6.250E+01 0.000E+00 0.000E+00 0.000E+00 0.000E+00    1       74        0        0
     74  6.250E+01 0.000E+00 0.000E+00 0.000E+00 0.000E+00    1       75        0        0
     75  6.250E+01 0.000E+00 0.000E+00 0.000E+00 0.000E+00    1       76        0        0
     76  6.250E+01 0.000E+00 0.000E+00 0.000E+00 0.000E+00    1       77        0        0
     77  6.250E+01 0.000E+00 0.000E+00 0.000E+00 0.000E+00    1       78        0        0
     78  6.250E+01 0.000E+00 0.000E+00 0.000E+00 0.000E+00    1       79        0        0
     79  6.250E+01 0.000E+00 0.000E+00 0.000E+00 0.000E+00    1       80        0        0
     80  6.250E+01 0.000E+00 0.000E+00 0.000E+00 0.000E+00    1       81        0        0
     81  6.250E+01 0.000E+00 0.000E+00 0.000E+00 0.000E+00    1       82        0        0
     82  6.250E+01 0.000E+00 0.000E+00 0.000E+00 0.000E+00    1       83        0        0
     83  6.250E+01 0.000E+00 0.000E+00 0.000E+00 0.000E+00    1       84        0        0
     84  6.250E+01 0.000E+00 0.000E+00 0.000E+00 0.000E+00    1       85        0        0
     85  6.250E+01 0.000E+00 0.000E+00 0.000E+00 0.000E+00    1       86        0        0
     86  6.250E+01 0.000E+00 0.000E+00 0.000E+00 0.000E+00    1       87        0        0
     87  6.250E+01 0.000E+00 0.000E+00 0.000E+00 0.000E+00    1       88        0        0
     88  6.250E+01 0.000E+00 0.000E+00 0.000E+00 0.000E+00    1       89        0        0
     89  6.250E+01 0.000E+00 0.000E+00 0.000E+00 0.000E+00    1       90        0        0
     90  6.250E+01 0.000E+00 0.000E+00 0.000E+00 0.000E+00    1       91        0        0
     91  6.250E+01 0.000E+00 0.000E+00 0.000E+00 0.000E+00    1       92        0        0
     92  6.250E+01 0.000E+00 0.000E+00 0.000E+00 0.000E+00    1       93        0        0
     93  6.250E+01 0.000E+00 0.000E+00 0.000E+00 0.000E+00    1       94        0        0
     94  6.250E+01 0.000E+00 0.000E+00 0.000E+00 0.000E+00    1       95        0        0
     95  6.250E+01 0.000E+00 0.000E+00 0.000E+00 0.000E+00    1       96        0        0
     96  6.250E+01 0.000E+00 0.000E+00 0.000E+00 0.000E+00    1       97        0        0
     97  6.250E+01 0.000E+00 0.000E+00 0.000E+00 0.000E+00    1       98        0        0
     98  6.250E+01 0.000E+00 0.000E+00 0.000E+00 0.000E+00    1       99        0        0
     99  6.250E+01 0.000E+00 0.000E+00 0.000E+00 0.000E+00    1      100        0        0
    100  6.250E+01 0.000E+00 0.000E+00 0.000E+00 0.000E+00    1      101        0        0
    101  6.250E+01 0.000E+00 0.000E+00 0.000E+00 0.000E+00    1      102        0        0
    102  6.250E+01 0.000E+00 0.000E+00 0.000E+00 0.000E+00    1      103        0        0
    103  6.250E+01 0.000E+00 0.000E+00 0.000E+00 0.000E+00    1      104        0        0
    104  6.250E+01 0.000E+00 0.000E+00 0.000E+00 0.000E+00    1      105        0        0
    105  6.250E+01 0.000E+00 0.000E+00 0.000E+00 0.000E+00    1      106        0        0
    106  6.250E+01 0.000E+00 0.000E+00 0.000E+00 0.000E+00    1      107        0        0
    107  6.250E+01 0.000E+00 0.000E+00 0.000E+00 0.000E+00    1      108        0        0
    108  6.250E+01 0.000E+00 0.000E+00 0.000E+00 0.000E+00    1      109        0        0
    109  6.250E+01 0.000E+00 0.000E+00 0.000E+00 0.000E+00    1      110        0        0
    110  6.250E+01 0.000E+00 0.000E+00 0.000E+00 0.000E+00    1      111        0        0
    111  6.250E+01 0.000E+00 0.000E+00 0.000E+00 0.000E+00    1      112        0        0
    112  6.250E+01 0.000E+00 0.000E+00 0.000E+00 0.000E+00    1      113        0        0
    113  6.250E+01 0.000E+00 0.000E+00 0.000E+00 0.000E+00    1      114        0        0
    114  6.250E+01 0.000E+00 0.000E+00 0.000E+00 0.000E+00    1      115        0        0
    115  6.250E+01 0.000E+00 0.000E+00 0.000E+00 0.000E+00    1      116        0        0
    116  6.250E+01 0.000E+00 0.000E+00 0.000E+00 0.000E+00    1      117        0        0
    117  6.250E+01 0.000E+00 0.000E+00 0.000E+00 0.000E+00    1      118        0        0
    118  6.250E+01 0.000E+00 0.000E+00 0.000E+00 0.000E+00    1      119        0        0
    119  6.250E+01 0.000E+00 0.000E+00 0.000E+00 0.000E+00    1      120        0        0
    120  6.250E+01 0.000E+00 0.000E+00 0.000E+00 0.000E+00    1      121        0        0
    121  6.250E+01 0.000E+00 0.000E+00 0.000E+00 0.000E+00    1      122        0        0
    122  6.250E+01 0.000E+00 0.000E+00 0.000E+00 0.000E+00    1      123        0        0
    123  6.250E+01 0.000E+00 0.000E+00 0.000E+00 0.000E+00    1      124        0        0
    124  6.250E+01 0.000E+00 0.000E+00 0.000E+00 0.000E+00    1      125        0        0
    125  6.250E+01 0.000E+00 0.000E+00 0.000E+00 0.000E+00    1      126        0        0
    126  6.250E+01 0.000E+00 0.000E+00 0.000E+00 0.000E+00    1      127        0        0
    127  6.250E+01 0.000E+00 0.000E+00 0.000E+00 0.000E+00    1      128        0        0
    128  6.250E+01 0.000E+00 0.000E+00 0.000E+00 0.000E+00    1      129        0        0
    129  6.250E+01 0.000E+00 0.000E+00 0.000E+00 0.000E+00    1      130        0        0
    130  6.250E+01 0.000E+00 0.000E+00 0.000E+00 0.000E+00    1      131        0        0
    131  6.250E+01 0.000E+00 0.000E+00 0.000E+00 0.000E+00    1      132        0        0
    132  6.250E+01 0.000E+00 0.000E+00 0.000E+00 0.000E+00    1      133        0        0
    133  6.250E+01 0.000E+00 0.000E+00 0.000E+00 0.000E+00    1      134        0        0
    134  6.250E+01 0.000E+00 0.000E+00 0.000E+00 0.000E+00    1      135        0        0
    135  6.250E+01 0.000E+00 0.000E+00 0.000E+00 0.000E+00    1      136        0        0
    136  6.250E+01 0.000E+00 0.000E+00 0.000E+00 0.000E+00    1      137        0        0
    137  6.250E+01 0.000E+00 0.000E+00 0.000E+00 0.000E+00    1      138        0        0
    138  6.250E+01 0.000E+00 0.000E+00 0.000E+00 0.000E+00    1      139        0        0
    139  6.250E+01 0.000E+00 0.000E+00 0.000E+00 0.000E+00    1      140        0        0
    140  6.250E+01 0.000E+00 0.000E+00 0.000E+00 0.000E+00    1      141        0        0
    141  6.250E+01 0.000E+00 0.000E+00 0.000E+00 0.000E+00    1      142        0        0
    142  6.250E+01 0.000E+00 0.000E+00 0.000E+00 0.000E+00    1      143        0        0
    143  6.250E+01 0.000E+00 0.000E+00 0.000E+00 0.000E+00    1      144        0        0
    144  6.250E+01 0.000E+00 0.000E+00 0.000E+00 0.000E+00    1      145        0        0
    145  6.250E+01 0.000E+00 0.000E+00 0.000E+00 0.000E+00    1      146        0        0
    146  6.250E+01 0.000E+00 0.000E+00 0.000E+00 0.000E+00    1      147        0        0
    147  6.250E+01 0.000E+00 0.000E+00 0.000E+00 0.000E+00    1      148        0        0
    148  6.250E+01 0.000E+00 0.000E+00 0.000E+00 0.000E+00    1      149        0        0
    149  6.250E+01 0.000E+00 0.000E+00 0.000E+00 0.000E+00    1      150        0        0
    150  6.250E+01 0.000E+00 0.000E+00 0.000E+00 0.000E+00    1      151        0        0
    151  6.250E+01 0.000E+00 0.000E+00 0.000E+00 0.000E+00    1      152        0        0
    152  6.250E+01 0.000E+00 0.000E+00 0.000E+00 0.000E+00    1      153        0        0
    153  6.250E+01 0.000E+00 0.000E+00 0.000E+00 0.000E+00    1      154        0        0
    154  6.250E+01 0.000E+00 0.000E+00 0.000E+00 0.000E+00    1      155        0        0
    155  6.250E+01 0.000E+00 0.000E+00 0.000E+00 0.000E+00    1      156        0        0
    156  6.250E+01 0.000E+00 0.000E+00 0.000E+00 0.000E+00    1      157        0        0
    157  6.250E+01 0.000E+00 0.000E+00 0.000E+00 0.000E+00    1      158        0        0
    158  6.250E+01 0.000E+00 0.000E+00 0.000E+00 0.000E+00    1      159        0        0
    159  6.250E+01 0.000E+00 0.000E+00 0.000E+00 0.000E+00    1      160        0        0
    160  6.250E+01 0.000E+00 0.000E+00 0.000E+00 0.000E+00    1      161        0        0


         STREAMBED PROPERTIES AND STREAM DIMENSIONS

 SEGMENT     WIDTH OF STREAM     DEPTH OF STREAM    STREAM ROUGHNESS
    No.     UPPER     LOWER     UPPER     LOWER     CHANNEL      BANK

     1    5.000E+00 5.000E+00                      1.000E-01
     2    5.000E+00 5.000E+00                      1.000E-01
     3    5.000E+00 5.000E+00                      1.000E-01
     4    5.000E+00 5.000E+00                      1.000E-01
     5    5.000E+00 5.000E+00                      1.000E-01
     6    5.000E+00 5.000E+00                      1.000E-01
     7    5.000E+00 5.000E+00                      1.000E-01
     8    5.000E+00 5.000E+00                      1.000E-01
     9    5.000E+00 5.000E+00                      1.000E-01
    10    5.000E+00 5.000E+00                      1.000E-01
    11    5.000E+00 5.000E+00                      1.000E-01
    12    5.000E+00 5.000E+00                      1.000E-01
    13    5.000E+00 5.000E+00                      1.000E-01
    14    5.000E+00 5.000E+00                      1.000E-01
    15    5.000E+00 5.000E+00                      1.000E-01
    16    5.000E+00 5.000E+00                      1.000E-01
    17    5.000E+00 5.000E+00                      1.000E-01
    18    5.000E+00 5.000E+00                      1.000E-01
    19    5.000E+00 5.000E+00                      1.000E-01
    20    5.000E+00 5.000E+00                      1.000E-01
    21    5.000E+00 5.000E+00                      1.000E-01
    22    5.000E+00 5.000E+00                      1.000E-01
    23    5.000E+00 5.000E+00                      1.000E-01
    24    5.000E+00 5.000E+00                      1.000E-01
    25    5.000E+00 5.000E+00                      1.000E-01
    26    5.000E+00 5.000E+00                      1.000E-01
    27    5.000E+00 5.000E+00                      1.000E-01
    28    5.000E+00 5.000E+00                      1.000E-01
    29    5.000E+00 5.000E+00                      1.000E-01
    30    5.000E+00 5.000E+00                      1.000E-01
    31    5.000E+00 5.000E+00                      1.000E-01
    32    5.000E+00 5.000E+00                      1.000E-01
    33    5.000E+00 5.000E+00                      1.000E-01
    34    5.000E+00 5.000E+00                      1.000E-01
    35    5.000E+00 5.000E+00                      1.000E-01
    36    5.000E+00 5.000E+00                      1.000E-01
    37    5.000E+00 5.000E+00                      1.000E-01
    38    5.000E+00 5.000E+00                      1.000E-01
    39    5.000E+00 5.000E+00                      1.000E-01
    40    5.000E+00 5.000E+00                      1.000E-01
    41    5.000E+00 5.000E+00                      1.000E-01
    42    5.000E+00 5.000E+00                      1.000E-01
    43    5.000E+00 5.000E+00                      1.000E-01
    44    5.000E+00 5.000E+00                      1.000E-01
    45    5.000E+00 5.000E+00                      1.000E-01
    46    5.000E+00 5.000E+00                      1.000E-01
    47    5.000E+00 5.000E+00                      1.000E-01
    48    5.000E+00 5.000E+00                      1.000E-01
    49    5.000E+00 5.000E+00                      1.000E-01
    50    5.000E+00 5.000E+00                      1.000E-01
    51    5.000E+00 5.000E+00                      1.000E-01
    52    5.000E+00 5.000E+00                      1.000E-01
    53    5.000E+00 5.000E+00                      1.000E-01
    54    5.000E+00 5.000E+00                      1.000E-01
    55    5.000E+00 5.000E+00                      1.000E-01
    56    5.000E+00 5.000E+00                      1.000E-01
    57    5.000E+00 5.000E+00                      1.000E-01
    58    5.000E+00 5.000E+00                      1.000E-01
    59    5.000E+00 5.000E+00                      1.000E-01
    60    5.000E+00 5.000E+00                      1.000E-01
    61    5.000E+00 5.000E+00                      1.000E-01
    62    5.000E+00 5.000E+00                      1.000E-01
    63    5.000E+00 5.000E+00                      1.000E-01
    64    5.000E+00 5.000E+00                      1.000E-01
    65    5.000E+00 5.000E+00                      1.000E-01
    66    5.000E+00 5.000E+00                      1.000E-01
    67    5.000E+00 5.000E+00                      1.000E-01
    68    5.000E+00 5.000E+00                      1.000E-01
    69    5.000E+00 5.000E+00                      1.000E-01
    70    5.000E+00 5.000E+00                      1.000E-01
    71    5.000E+00 5.000E+00                      1.000E-01
    72    5.000E+00 5.000E+00                      1.000E-01
    73    5.000E+00 5.000E+00                      1.000E-01
    74    5.000E+00 5.000E+00                      1.000E-01
    75    5.000E+00 5.000E+00                      1.000E-01
    76    5.000E+00 5.000E+00                      1.000E-01
    77    5.000E+00 5.000E+00                      1.000E-01
    78    5.000E+00 5.000E+00                      1.000E-01
    79    5.000E+00 5.000E+00                      1.000E-01
    80    5.000E+00 5.000E+00                      1.000E-01
    81    5.000E+00 5.000E+00                      1.000E-01
    82    5.000E+00 5.000E+00                      1.000E-01
    83    5.000E+00 5.000E+00                      1.000E-01
    84    5.000E+00 5.000E+00                      1.000E-01
    85    5.000E+00 5.000E+00                      1.000E-01
    86    5.000E+00 5.000E+00                      1.000E-01
    87    5.000E+00 5.000E+00                      1.000E-01
    88    5.000E+00 5.000E+00                      1.000E-01
    89    5.000E+00 5.000E+00                      1.000E-01
    90    5.000E+00 5.000E+00                      1.000E-01
    91    5.000E+00 5.000E+00                      1.000E-01
    92    5.000E+00 5.000E+00                      1.000E-01
    93    5.000E+00 5.000E+00                      1.000E-01
    94    5.000E+00 5.000E+00                      1.000E-01
    95    5.000E+00 5.000E+00                      1.000E-01
    96    5.000E+00 5.000E+00                      1.000E-01
    97    5.000E+00 5.000E+00                      1.000E-01
    98    5.000E+00 5.000E+00                      1.000E-01
    99    5.000E+00 5.000E+00                      1.000E-01
   100    5.000E+00 5.000E+00                      1.000E-01
   101    5.000E+00 5.000E+00                      1.000E-01
   102    5.000E+00 5.000E+00                      1.000E-01
   103    5.000E+00 5.000E+00                      1.000E-01
   104    5.000E+00 5.000E+00                      1.000E-01
   105    5.000E+00 5.000E+00                      1.000E-01
   106    5.000E+00 5.000E+00                      1.000E-01
   107    5.000E+00 5.000E+00                      1.000E-01
   108    5.000E+00 5.000E+00                      1.000E-01
   109    5.000E+00 5.000E+00                      1.000E-01
   110    5.000E+00 5.000E+00                      1.000E-01
   111    5.000E+00 5.000E+00                      1.000E-01
   112    5.000E+00 5.000E+00                      1.000E-01
   113    5.000E+00 5.000E+00                      1.000E-01
   114    5.000E+00 5.000E+00                      1.000E-01
   115    5.000E+00 5.000E+00                      1.000E-01
   116    5.000E+00 5.000E+00                      1.000E-01
   117    5.000E+00 5.000E+00                      1.000E-01
   118    5.000E+00 5.000E+00                      1.000E-01
   119    5.000E+00 5.000E+00                      1.000E-01
   120    5.000E+00 5.000E+00                      1.000E-01
   121    5.000E+00 5.000E+00                      1.000E-01
   122    5.000E+00 5.000E+00                      1.000E-01
   123    5.000E+00 5.000E+00                      1.000E-01
   124    5.000E+00 5.000E+00                      1.000E-01
   125    5.000E+00 5.000E+00                      1.000E-01
   126    5.000E+00 5.000E+00                      1.000E-01
   127    5.000E+00 5.000E+00                      1.000E-01
   128    5.000E+00 5.000E+00                      1.000E-01
   129    5.000E+00 5.000E+00                      1.000E-01
   130    5.000E+00 5.000E+00                      1.000E-01
   131    5.000E+00 5.000E+00                      1.000E-01
   132    5.000E+00 5.000E+00                      1.000E-01
   133    5.000E+00 5.000E+00                      1.000E-01
   134    5.000E+00 5.000E+00                      1.000E-01
   135    5.000E+00 5.000E+00                      1.000E-01
   136    5.000E+00 5.000E+00                      1.000E-01
   137    5.000E+00 5.000E+00                      1.000E-01
   138    5.000E+00 5.000E+00                      1.000E-01
   139    5.000E+00 5.000E+00                      1.000E-01
   140    5.000E+00 5.000E+00                      1.000E-01
   141    5.000E+00 5.000E+00                      1.000E-01
   142    5.000E+00 5.000E+00                      1.000E-01
   143    5.000E+00 5.000E+00                      1.000E-01
   144    5.000E+00 5.000E+00                      1.000E-01
   145    5.000E+00 5.000E+00                      1.000E-01
   146    5.000E+00 5.000E+00                      1.000E-01
   147    5.000E+00 5.000E+00                      1.000E-01
   148    5.000E+00 5.000E+00                      1.000E-01
   149    5.000E+00 5.000E+00                      1.000E-01
   150    5.000E+00 5.000E+00                      1.000E-01
   151    5.000E+00 5.000E+00                      1.000E-01
   152    5.000E+00 5.000E+00                      1.000E-01
   153    5.000E+00 5.000E+00                      1.000E-01
   154    5.000E+00 5.000E+00                      1.000E-01
   155    5.000E+00 5.000E+00                      1.000E-01
   156    5.000E+00 5.000E+00                      1.000E-01
   157    5.000E+00 5.000E+00                      1.000E-01
   158    5.000E+00 5.000E+00                      1.000E-01
   159    5.000E+00 5.000E+00                      1.000E-01
   160    5.000E+00 5.000E+00                      1.000E-01



 
 SOLVING FOR HEAD 


 OUTER ITERATION SUMMARY
 -----------------------
 BT: Backtracking; LA: Linear Acceleration; UR: Under-relaxation

    Outer-Iteration  Inner-Iteration    Maximum Head Change  Maximum Head Change
        Number           Count               Value              Location
LA         1                8              -0.14811                   772           GWF-node number
LA         2                5              -0.76991E-02              1094           GWF-node number
LA         3                2              -0.39576E-03              1094           GWF-node number
LA         4                1               0.18267E-04              2593           GWF-node number


     4 CALLS TO SPARSE MATRIX SOLVER PACKAGE  IN FLOW TIME STEP   1 STRESS PERIOD  10

 TOTAL OF       4OUTER ITERATIONS
  MAXIMUM CHANGE FOR EACH ITERATION:
   MAX. CHANGE        NODE  MAX. CHANGE        NODE  MAX. CHANGE        NODE  MAX. CHANGE        NODE  MAX. CHANGE        NODE
 ------------------------------------------------------------------------------------------------------------------------------------
  -0.14811    ,        772 -0.76991E-02,       1094 -0.39576E-03,       1094  0.18267E-04,       2593

 OUTPUT CONTROL FOR STRESS PERIOD       10   TIME STEP        1
    SAVE HEAD FOR ALL LAYERS
    SAVE BUDGET
 UBDSV1U SAVING "         STORAGE" ON UNIT  50 AT TIME STEP      1, STRESS PERIOD     10
 UBDSV2U SAVING "   CONSTANT HEAD" ON UNIT  50 AT TIME STEP      1, STRESS PERIOD     10
 UBDSV1U SAVING "   FLOW JA FACE " ON UNIT  50 AT TIME STEP      1, STRESS PERIOD     10
 UBDSV4U SAVING "           WELLS" ON UNIT  50 AT TIME STEP      1, STRESS PERIOD     10
 UBDSV4U SAVING " HEAD DEP BOUNDS" ON UNIT  50 AT TIME STEP      1, STRESS PERIOD     10
 UBDSV3U SAVING "        RECHARGE" ON UNIT  50 AT TIME STEP      1, STRESS PERIOD     10
 UBDSV2U SAVING "  STREAM LEAKAGE" ON UNIT  50 AT TIME STEP      1, STRESS PERIOD     10




 HEAD WILL BE SAVED ON UNIT   51 AT END OF TIME STEP   1, STRESS PERIOD   10
1
  VOLUMETRIC BUDGET FOR ENTIRE MODEL AT END OF TIME STEP       1 IN STRESS PERIOD      10
  ---------------------------------------------------------------------------------------

     CUMULATIVE VOLUMES      L**3       RATES FOR THIS TIME STEP      L**3/T
     ------------------                 ------------------------

           IN:                                      IN:
           ---                                      ---
             STORAGE =      338471.3578               STORAGE =        1341.9127
       CONSTANT HEAD =           0.0000         CONSTANT HEAD =           0.0000
               WELLS =           0.0000                 WELLS =           0.0000
     HEAD DEP BOUNDS =       87020.4366       HEAD DEP BOUNDS =         640.4164
            RECHARGE =      704651.2461              RECHARGE =        1257.9218
      STREAM LEAKAGE =       26328.4111        STREAM LEAKAGE =         526.5377

            TOTAL IN =     1156471.4516              TOTAL IN =        3766.7886

          OUT:                                     OUT:
          ----                                     ----
             STORAGE =      171072.8319               STORAGE =           0.0000
       CONSTANT HEAD =           0.0000         CONSTANT HEAD =           0.0000
               WELLS =      681887.3265                 WELLS =        3517.7798
     HEAD DEP BOUNDS =      154011.8650       HEAD DEP BOUNDS =         106.5715
            RECHARGE =           0.0000              RECHARGE =           0.0000
      STREAM LEAKAGE =      149501.7718        STREAM LEAKAGE =         142.4389

           TOTAL OUT =     1156473.7952             TOTAL OUT =        3766.7902

            IN - OUT =          -2.3436              IN - OUT =      -1.6188E-03

 PERCENT DISCREPANCY =          -0.00     PERCENT DISCREPANCY =          -0.00






          TIME SUMMARY AT END OF TIME STEP         1 IN STRESS PERIOD        10
                    SECONDS     MINUTES      HOURS       DAYS        YEARS
                    -----------------------------------------------------------
   TIME STEP LENGTH 2.59200E+06  43200.      720.00      30.000     8.21355E-02
 STRESS PERIOD TIME 2.59200E+06  43200.      720.00      30.000     8.21355E-02
         TOTAL TIME 2.37600E+07 3.96000E+05  6600.0      275.00     0.75291    
1
1
                            STRESS PERIOD NO.   11, LENGTH =   31.00000    
                            -----------------------------------------------

                              NUMBER OF TIME STEPS =     1

                               MULTIPLIER FOR DELT =     1.000

                            INITIAL TIME STEP SIZE =   31.00000    

 WEL -- WELL PACKAGE, VERSION 7, 5/2/2005 INPUT READ FROM UNIT   20

 WELL NO.      NODE       STRESS FACTOR         
 -----------------------------------------------
      1        3324      -492.4    
      2        3409      -492.4    
      3        3737      -492.4    
      4        3971      -492.4    
      5        4092      -492.4    
      6        4297      -492.4    

      6 WELLS

 GHB -- GENERAL-HEAD BOUNDARY PACKAGE, VERSION 7, 5/2/2005
         INPUT READ FROM UNIT   30

 BOUND NO.     NODE         STAGE         CONDUCTANCE         
 -------------------------------------------------------------
      1        1473       33.50           70.00    
      2        1474       33.50           70.00    
      3        1475       33.50           70.00    
      4        1476       33.50           70.00    
      5        1477       33.50           70.00    
      6        1478       33.50           70.00    
      7        1479       33.50           70.00    
      8        1480       33.50           70.00    
      9        1481       33.50           70.00    
     10        1482       33.50           70.00    
     11        2972       33.50           70.00    
     12        2973       33.50           70.00    
     13        2974       33.50           70.00    
     14        2975       33.50           70.00    
     15        2976       33.50           70.00    
     16        2977       33.50           70.00    
     17        2978       33.50           70.00    
     18        2979       33.50           70.00    
     19        2980       33.50           70.00    
     20        2981       33.50           70.00    
     21        4471       33.50           70.00    
     22        4472       33.50           70.00    
     23        4473       33.50           70.00    
     24        4474       33.50           70.00    
     25        4475       33.50           70.00    
     26        4476       33.50           70.00    
     27        4477       33.50           70.00    
     28        4478       33.50           70.00    
     29        4479       33.50           70.00    
     30        4480       33.50           70.00    
     31        2999       35.50           70.00    
     32        3000       35.50           70.00    
     33        3001       35.50           70.00    
     34        3002       35.50           70.00    
     35        3003       35.50           70.00    
     36        3004       35.50           70.00    
     37        3005       35.50           70.00    
     38        3006       35.50           70.00    
     39        3007       35.50           70.00    
     40        3008       35.50           70.00    
     41        3009       35.50           70.00    
     42        3010       35.50           70.00    
     43        3011       35.50           70.00    
     44        3012       35.50           70.00    
     45        3013       35.50           70.00    
     46        3023       35.50           4.375    
     47        3027       35.50           17.50    
     48        3028       35.50           70.00    
     49        3029       35.50           70.00    
     50        3030       35.50           70.00    

     50 GHB CELLS

 RCH -- RECHARGE PACKAGE, VERSION 7, 5/2/2005 INPUT READ FROM UNIT   31



                           RECHARGE
 READING ON UNIT   31 WITH FORMAT: (1499E15.6)         



 CLASSIFICATION & COUNT OF STREAM SEGMENTS BASED ON SOURCE OF INFLOW:

                HEADWATER     DIVERSION     RECEIVES TRIBUTARY FLOW
                ---------     ---------     -----------------------
                     1              0             159



                    INPUT DATA FOR EACH STREAM SEGMENT
 ---------------------------------------------------------------------------------------------

 SEGMENT    SEG.     INFLOW   OVERLAND   STREAM    STREAM   ICALC  OUTFLOW  DIVERSION PRIORITY
    NO.    LENGTH     RATE     RUNOFF      ET       PPT.    METH.  TO SEG.  FROM SEG.    NO.

      1  6.250E+01 7.674E+03 0.000E+00 0.000E+00 0.000E+00    1        2        0        0
      2  6.250E+01 0.000E+00 0.000E+00 0.000E+00 0.000E+00    1        3        0        0
      3  6.250E+01 0.000E+00 0.000E+00 0.000E+00 0.000E+00    1        4        0        0
      4  6.250E+01 0.000E+00 0.000E+00 0.000E+00 0.000E+00    1        5        0        0
      5  6.250E+01 0.000E+00 0.000E+00 0.000E+00 0.000E+00    1        6        0        0
      6  6.250E+01 0.000E+00 0.000E+00 0.000E+00 0.000E+00    1        7        0        0
      7  6.250E+01 0.000E+00 0.000E+00 0.000E+00 0.000E+00    1        8        0        0
      8  6.250E+01 0.000E+00 0.000E+00 0.000E+00 0.000E+00    1        9        0        0
      9  6.250E+01 0.000E+00 0.000E+00 0.000E+00 0.000E+00    1       10        0        0
     10  6.250E+01 0.000E+00 0.000E+00 0.000E+00 0.000E+00    1       11        0        0
     11  6.250E+01 0.000E+00 0.000E+00 0.000E+00 0.000E+00    1       12        0        0
     12  6.250E+01 0.000E+00 0.000E+00 0.000E+00 0.000E+00    1       13        0        0
     13  6.250E+01 0.000E+00 0.000E+00 0.000E+00 0.000E+00    1       14        0        0
     14  6.250E+01 0.000E+00 0.000E+00 0.000E+00 0.000E+00    1       15        0        0
     15  6.250E+01 0.000E+00 0.000E+00 0.000E+00 0.000E+00    1       16        0        0
     16  6.250E+01 0.000E+00 0.000E+00 0.000E+00 0.000E+00    1       17        0        0
     17  6.250E+01 0.000E+00 0.000E+00 0.000E+00 0.000E+00    1       18        0        0
     18  6.250E+01 0.000E+00 0.000E+00 0.000E+00 0.000E+00    1       19        0        0
     19  6.250E+01 0.000E+00 0.000E+00 0.000E+00 0.000E+00    1       20        0        0
     20  6.250E+01 0.000E+00 0.000E+00 0.000E+00 0.000E+00    1       21        0        0
     21  6.250E+01 0.000E+00 0.000E+00 0.000E+00 0.000E+00    1       22        0        0
     22  6.250E+01 0.000E+00 0.000E+00 0.000E+00 0.000E+00    1       23        0        0
     23  6.250E+01 0.000E+00 0.000E+00 0.000E+00 0.000E+00    1       24        0        0
     24  6.250E+01 0.000E+00 0.000E+00 0.000E+00 0.000E+00    1       25        0        0
     25  6.250E+01 0.000E+00 0.000E+00 0.000E+00 0.000E+00    1       26        0        0
     26  6.250E+01 0.000E+00 0.000E+00 0.000E+00 0.000E+00    1       27        0        0
     27  6.250E+01 0.000E+00 0.000E+00 0.000E+00 0.000E+00    1       28        0        0
     28  6.250E+01 0.000E+00 0.000E+00 0.000E+00 0.000E+00    1       29        0        0
     29  6.250E+01 0.000E+00 0.000E+00 0.000E+00 0.000E+00    1       30        0        0
     30  6.250E+01 0.000E+00 0.000E+00 0.000E+00 0.000E+00    1       31        0        0
     31  6.250E+01 0.000E+00 0.000E+00 0.000E+00 0.000E+00    1       32        0        0
     32  6.250E+01 0.000E+00 0.000E+00 0.000E+00 0.000E+00    1       33        0        0
     33  6.250E+01 0.000E+00 0.000E+00 0.000E+00 0.000E+00    1       34        0        0
     34  6.250E+01 0.000E+00 0.000E+00 0.000E+00 0.000E+00    1       35        0        0
     35  6.250E+01 0.000E+00 0.000E+00 0.000E+00 0.000E+00    1       36        0        0
     36  6.250E+01 0.000E+00 0.000E+00 0.000E+00 0.000E+00    1       37        0        0
     37  6.250E+01 0.000E+00 0.000E+00 0.000E+00 0.000E+00    1       38        0        0
     38  6.250E+01 0.000E+00 0.000E+00 0.000E+00 0.000E+00    1       39        0        0
     39  6.250E+01 0.000E+00 0.000E+00 0.000E+00 0.000E+00    1       40        0        0
     40  6.250E+01 0.000E+00 0.000E+00 0.000E+00 0.000E+00    1       41        0        0
     41  6.250E+01 0.000E+00 0.000E+00 0.000E+00 0.000E+00    1       42        0        0
     42  6.250E+01 0.000E+00 0.000E+00 0.000E+00 0.000E+00    1       43        0        0
     43  6.250E+01 0.000E+00 0.000E+00 0.000E+00 0.000E+00    1       44        0        0
     44  6.250E+01 0.000E+00 0.000E+00 0.000E+00 0.000E+00    1       45        0        0
     45  6.250E+01 0.000E+00 0.000E+00 0.000E+00 0.000E+00    1       46        0        0
     46  6.250E+01 0.000E+00 0.000E+00 0.000E+00 0.000E+00    1       47        0        0
     47  6.250E+01 0.000E+00 0.000E+00 0.000E+00 0.000E+00    1       48        0        0
     48  6.250E+01 0.000E+00 0.000E+00 0.000E+00 0.000E+00    1       49        0        0
     49  6.250E+01 0.000E+00 0.000E+00 0.000E+00 0.000E+00    1       50        0        0
     50  6.250E+01 0.000E+00 0.000E+00 0.000E+00 0.000E+00    1       51        0        0
     51  6.250E+01 0.000E+00 0.000E+00 0.000E+00 0.000E+00    1       52        0        0
     52  6.250E+01 0.000E+00 0.000E+00 0.000E+00 0.000E+00    1       53        0        0
     53  6.250E+01 0.000E+00 0.000E+00 0.000E+00 0.000E+00    1       54        0        0
     54  6.250E+01 0.000E+00 0.000E+00 0.000E+00 0.000E+00    1       55        0        0
     55  6.250E+01 0.000E+00 0.000E+00 0.000E+00 0.000E+00    1       56        0        0
     56  6.250E+01 0.000E+00 0.000E+00 0.000E+00 0.000E+00    1       57        0        0
     57  6.250E+01 0.000E+00 0.000E+00 0.000E+00 0.000E+00    1       58        0        0
     58  6.250E+01 0.000E+00 0.000E+00 0.000E+00 0.000E+00    1       59        0        0
     59  6.250E+01 0.000E+00 0.000E+00 0.000E+00 0.000E+00    1       60        0        0
     60  6.250E+01 0.000E+00 0.000E+00 0.000E+00 0.000E+00    1       61        0        0
     61  6.250E+01 0.000E+00 0.000E+00 0.000E+00 0.000E+00    1       62        0        0
     62  6.250E+01 0.000E+00 0.000E+00 0.000E+00 0.000E+00    1       63        0        0
     63  6.250E+01 0.000E+00 0.000E+00 0.000E+00 0.000E+00    1       64        0        0
     64  6.250E+01 0.000E+00 0.000E+00 0.000E+00 0.000E+00    1       65        0        0
     65  6.250E+01 0.000E+00 0.000E+00 0.000E+00 0.000E+00    1       66        0        0
     66  6.250E+01 0.000E+00 0.000E+00 0.000E+00 0.000E+00    1       67        0        0
     67  6.250E+01 0.000E+00 0.000E+00 0.000E+00 0.000E+00    1       68        0        0
     68  6.250E+01 0.000E+00 0.000E+00 0.000E+00 0.000E+00    1       69        0        0
     69  6.250E+01 0.000E+00 0.000E+00 0.000E+00 0.000E+00    1       70        0        0
     70  6.250E+01 0.000E+00 0.000E+00 0.000E+00 0.000E+00    1       71        0        0
     71  6.250E+01 0.000E+00 0.000E+00 0.000E+00 0.000E+00    1       72        0        0
     72  6.250E+01 0.000E+00 0.000E+00 0.000E+00 0.000E+00    1       73        0        0
     73  6.250E+01 0.000E+00 0.000E+00 0.000E+00 0.000E+00    1       74        0        0
     74  6.250E+01 0.000E+00 0.000E+00 0.000E+00 0.000E+00    1       75        0        0
     75  6.250E+01 0.000E+00 0.000E+00 0.000E+00 0.000E+00    1       76        0        0
     76  6.250E+01 0.000E+00 0.000E+00 0.000E+00 0.000E+00    1       77        0        0
     77  6.250E+01 0.000E+00 0.000E+00 0.000E+00 0.000E+00    1       78        0        0
     78  6.250E+01 0.000E+00 0.000E+00 0.000E+00 0.000E+00    1       79        0        0
     79  6.250E+01 0.000E+00 0.000E+00 0.000E+00 0.000E+00    1       80        0        0
     80  6.250E+01 0.000E+00 0.000E+00 0.000E+00 0.000E+00    1       81        0        0
     81  6.250E+01 0.000E+00 0.000E+00 0.000E+00 0.000E+00    1       82        0        0
     82  6.250E+01 0.000E+00 0.000E+00 0.000E+00 0.000E+00    1       83        0        0
     83  6.250E+01 0.000E+00 0.000E+00 0.000E+00 0.000E+00    1       84        0        0
     84  6.250E+01 0.000E+00 0.000E+00 0.000E+00 0.000E+00    1       85        0        0
     85  6.250E+01 0.000E+00 0.000E+00 0.000E+00 0.000E+00    1       86        0        0
     86  6.250E+01 0.000E+00 0.000E+00 0.000E+00 0.000E+00    1       87        0        0
     87  6.250E+01 0.000E+00 0.000E+00 0.000E+00 0.000E+00    1       88        0        0
     88  6.250E+01 0.000E+00 0.000E+00 0.000E+00 0.000E+00    1       89        0        0
     89  6.250E+01 0.000E+00 0.000E+00 0.000E+00 0.000E+00    1       90        0        0
     90  6.250E+01 0.000E+00 0.000E+00 0.000E+00 0.000E+00    1       91        0        0
     91  6.250E+01 0.000E+00 0.000E+00 0.000E+00 0.000E+00    1       92        0        0
     92  6.250E+01 0.000E+00 0.000E+00 0.000E+00 0.000E+00    1       93        0        0
     93  6.250E+01 0.000E+00 0.000E+00 0.000E+00 0.000E+00    1       94        0        0
     94  6.250E+01 0.000E+00 0.000E+00 0.000E+00 0.000E+00    1       95        0        0
     95  6.250E+01 0.000E+00 0.000E+00 0.000E+00 0.000E+00    1       96        0        0
     96  6.250E+01 0.000E+00 0.000E+00 0.000E+00 0.000E+00    1       97        0        0
     97  6.250E+01 0.000E+00 0.000E+00 0.000E+00 0.000E+00    1       98        0        0
     98  6.250E+01 0.000E+00 0.000E+00 0.000E+00 0.000E+00    1       99        0        0
     99  6.250E+01 0.000E+00 0.000E+00 0.000E+00 0.000E+00    1      100        0        0
    100  6.250E+01 0.000E+00 0.000E+00 0.000E+00 0.000E+00    1      101        0        0
    101  6.250E+01 0.000E+00 0.000E+00 0.000E+00 0.000E+00    1      102        0        0
    102  6.250E+01 0.000E+00 0.000E+00 0.000E+00 0.000E+00    1      103        0        0
    103  6.250E+01 0.000E+00 0.000E+00 0.000E+00 0.000E+00    1      104        0        0
    104  6.250E+01 0.000E+00 0.000E+00 0.000E+00 0.000E+00    1      105        0        0
    105  6.250E+01 0.000E+00 0.000E+00 0.000E+00 0.000E+00    1      106        0        0
    106  6.250E+01 0.000E+00 0.000E+00 0.000E+00 0.000E+00    1      107        0        0
    107  6.250E+01 0.000E+00 0.000E+00 0.000E+00 0.000E+00    1      108        0        0
    108  6.250E+01 0.000E+00 0.000E+00 0.000E+00 0.000E+00    1      109        0        0
    109  6.250E+01 0.000E+00 0.000E+00 0.000E+00 0.000E+00    1      110        0        0
    110  6.250E+01 0.000E+00 0.000E+00 0.000E+00 0.000E+00    1      111        0        0
    111  6.250E+01 0.000E+00 0.000E+00 0.000E+00 0.000E+00    1      112        0        0
    112  6.250E+01 0.000E+00 0.000E+00 0.000E+00 0.000E+00    1      113        0        0
    113  6.250E+01 0.000E+00 0.000E+00 0.000E+00 0.000E+00    1      114        0        0
    114  6.250E+01 0.000E+00 0.000E+00 0.000E+00 0.000E+00    1      115        0        0
    115  6.250E+01 0.000E+00 0.000E+00 0.000E+00 0.000E+00    1      116        0        0
    116  6.250E+01 0.000E+00 0.000E+00 0.000E+00 0.000E+00    1      117        0        0
    117  6.250E+01 0.000E+00 0.000E+00 0.000E+00 0.000E+00    1      118        0        0
    118  6.250E+01 0.000E+00 0.000E+00 0.000E+00 0.000E+00    1      119        0        0
    119  6.250E+01 0.000E+00 0.000E+00 0.000E+00 0.000E+00    1      120        0        0
    120  6.250E+01 0.000E+00 0.000E+00 0.000E+00 0.000E+00    1      121        0        0
    121  6.250E+01 0.000E+00 0.000E+00 0.000E+00 0.000E+00    1      122        0        0
    122  6.250E+01 0.000E+00 0.000E+00 0.000E+00 0.000E+00    1      123        0        0
    123  6.250E+01 0.000E+00 0.000E+00 0.000E+00 0.000E+00    1      124        0        0
    124  6.250E+01 0.000E+00 0.000E+00 0.000E+00 0.000E+00    1      125        0        0
    125  6.250E+01 0.000E+00 0.000E+00 0.000E+00 0.000E+00    1      126        0        0
    126  6.250E+01 0.000E+00 0.000E+00 0.000E+00 0.000E+00    1      127        0        0
    127  6.250E+01 0.000E+00 0.000E+00 0.000E+00 0.000E+00    1      128        0        0
    128  6.250E+01 0.000E+00 0.000E+00 0.000E+00 0.000E+00    1      129        0        0
    129  6.250E+01 0.000E+00 0.000E+00 0.000E+00 0.000E+00    1      130        0        0
    130  6.250E+01 0.000E+00 0.000E+00 0.000E+00 0.000E+00    1      131        0        0
    131  6.250E+01 0.000E+00 0.000E+00 0.000E+00 0.000E+00    1      132        0        0
    132  6.250E+01 0.000E+00 0.000E+00 0.000E+00 0.000E+00    1      133        0        0
    133  6.250E+01 0.000E+00 0.000E+00 0.000E+00 0.000E+00    1      134        0        0
    134  6.250E+01 0.000E+00 0.000E+00 0.000E+00 0.000E+00    1      135        0        0
    135  6.250E+01 0.000E+00 0.000E+00 0.000E+00 0.000E+00    1      136        0        0
    136  6.250E+01 0.000E+00 0.000E+00 0.000E+00 0.000E+00    1      137        0        0
    137  6.250E+01 0.000E+00 0.000E+00 0.000E+00 0.000E+00    1      138        0        0
    138  6.250E+01 0.000E+00 0.000E+00 0.000E+00 0.000E+00    1      139        0        0
    139  6.250E+01 0.000E+00 0.000E+00 0.000E+00 0.000E+00    1      140        0        0
    140  6.250E+01 0.000E+00 0.000E+00 0.000E+00 0.000E+00    1      141        0        0
    141  6.250E+01 0.000E+00 0.000E+00 0.000E+00 0.000E+00    1      142        0        0
    142  6.250E+01 0.000E+00 0.000E+00 0.000E+00 0.000E+00    1      143        0        0
    143  6.250E+01 0.000E+00 0.000E+00 0.000E+00 0.000E+00    1      144        0        0
    144  6.250E+01 0.000E+00 0.000E+00 0.000E+00 0.000E+00    1      145        0        0
    145  6.250E+01 0.000E+00 0.000E+00 0.000E+00 0.000E+00    1      146        0        0
    146  6.250E+01 0.000E+00 0.000E+00 0.000E+00 0.000E+00    1      147        0        0
    147  6.250E+01 0.000E+00 0.000E+00 0.000E+00 0.000E+00    1      148        0        0
    148  6.250E+01 0.000E+00 0.000E+00 0.000E+00 0.000E+00    1      149        0        0
    149  6.250E+01 0.000E+00 0.000E+00 0.000E+00 0.000E+00    1      150        0        0
    150  6.250E+01 0.000E+00 0.000E+00 0.000E+00 0.000E+00    1      151        0        0
    151  6.250E+01 0.000E+00 0.000E+00 0.000E+00 0.000E+00    1      152        0        0
    152  6.250E+01 0.000E+00 0.000E+00 0.000E+00 0.000E+00    1      153        0        0
    153  6.250E+01 0.000E+00 0.000E+00 0.000E+00 0.000E+00    1      154        0        0
    154  6.250E+01 0.000E+00 0.000E+00 0.000E+00 0.000E+00    1      155        0        0
    155  6.250E+01 0.000E+00 0.000E+00 0.000E+00 0.000E+00    1      156        0        0
    156  6.250E+01 0.000E+00 0.000E+00 0.000E+00 0.000E+00    1      157        0        0
    157  6.250E+01 0.000E+00 0.000E+00 0.000E+00 0.000E+00    1      158        0        0
    158  6.250E+01 0.000E+00 0.000E+00 0.000E+00 0.000E+00    1      159        0        0
    159  6.250E+01 0.000E+00 0.000E+00 0.000E+00 0.000E+00    1      160        0        0
    160  6.250E+01 0.000E+00 0.000E+00 0.000E+00 0.000E+00    1      161        0        0


         STREAMBED PROPERTIES AND STREAM DIMENSIONS

 SEGMENT     WIDTH OF STREAM     DEPTH OF STREAM    STREAM ROUGHNESS
    No.     UPPER     LOWER     UPPER     LOWER     CHANNEL      BANK

     1    5.000E+00 5.000E+00                      1.000E-01
     2    5.000E+00 5.000E+00                      1.000E-01
     3    5.000E+00 5.000E+00                      1.000E-01
     4    5.000E+00 5.000E+00                      1.000E-01
     5    5.000E+00 5.000E+00                      1.000E-01
     6    5.000E+00 5.000E+00                      1.000E-01
     7    5.000E+00 5.000E+00                      1.000E-01
     8    5.000E+00 5.000E+00                      1.000E-01
     9    5.000E+00 5.000E+00                      1.000E-01
    10    5.000E+00 5.000E+00                      1.000E-01
    11    5.000E+00 5.000E+00                      1.000E-01
    12    5.000E+00 5.000E+00                      1.000E-01
    13    5.000E+00 5.000E+00                      1.000E-01
    14    5.000E+00 5.000E+00                      1.000E-01
    15    5.000E+00 5.000E+00                      1.000E-01
    16    5.000E+00 5.000E+00                      1.000E-01
    17    5.000E+00 5.000E+00                      1.000E-01
    18    5.000E+00 5.000E+00                      1.000E-01
    19    5.000E+00 5.000E+00                      1.000E-01
    20    5.000E+00 5.000E+00                      1.000E-01
    21    5.000E+00 5.000E+00                      1.000E-01
    22    5.000E+00 5.000E+00                      1.000E-01
    23    5.000E+00 5.000E+00                      1.000E-01
    24    5.000E+00 5.000E+00                      1.000E-01
    25    5.000E+00 5.000E+00                      1.000E-01
    26    5.000E+00 5.000E+00                      1.000E-01
    27    5.000E+00 5.000E+00                      1.000E-01
    28    5.000E+00 5.000E+00                      1.000E-01
    29    5.000E+00 5.000E+00                      1.000E-01
    30    5.000E+00 5.000E+00                      1.000E-01
    31    5.000E+00 5.000E+00                      1.000E-01
    32    5.000E+00 5.000E+00                      1.000E-01
    33    5.000E+00 5.000E+00                      1.000E-01
    34    5.000E+00 5.000E+00                      1.000E-01
    35    5.000E+00 5.000E+00                      1.000E-01
    36    5.000E+00 5.000E+00                      1.000E-01
    37    5.000E+00 5.000E+00                      1.000E-01
    38    5.000E+00 5.000E+00                      1.000E-01
    39    5.000E+00 5.000E+00                      1.000E-01
    40    5.000E+00 5.000E+00                      1.000E-01
    41    5.000E+00 5.000E+00                      1.000E-01
    42    5.000E+00 5.000E+00                      1.000E-01
    43    5.000E+00 5.000E+00                      1.000E-01
    44    5.000E+00 5.000E+00                      1.000E-01
    45    5.000E+00 5.000E+00                      1.000E-01
    46    5.000E+00 5.000E+00                      1.000E-01
    47    5.000E+00 5.000E+00                      1.000E-01
    48    5.000E+00 5.000E+00                      1.000E-01
    49    5.000E+00 5.000E+00                      1.000E-01
    50    5.000E+00 5.000E+00                      1.000E-01
    51    5.000E+00 5.000E+00                      1.000E-01
    52    5.000E+00 5.000E+00                      1.000E-01
    53    5.000E+00 5.000E+00                      1.000E-01
    54    5.000E+00 5.000E+00                      1.000E-01
    55    5.000E+00 5.000E+00                      1.000E-01
    56    5.000E+00 5.000E+00                      1.000E-01
    57    5.000E+00 5.000E+00                      1.000E-01
    58    5.000E+00 5.000E+00                      1.000E-01
    59    5.000E+00 5.000E+00                      1.000E-01
    60    5.000E+00 5.000E+00                      1.000E-01
    61    5.000E+00 5.000E+00                      1.000E-01
    62    5.000E+00 5.000E+00                      1.000E-01
    63    5.000E+00 5.000E+00                      1.000E-01
    64    5.000E+00 5.000E+00                      1.000E-01
    65    5.000E+00 5.000E+00                      1.000E-01
    66    5.000E+00 5.000E+00                      1.000E-01
    67    5.000E+00 5.000E+00                      1.000E-01
    68    5.000E+00 5.000E+00                      1.000E-01
    69    5.000E+00 5.000E+00                      1.000E-01
    70    5.000E+00 5.000E+00                      1.000E-01
    71    5.000E+00 5.000E+00                      1.000E-01
    72    5.000E+00 5.000E+00                      1.000E-01
    73    5.000E+00 5.000E+00                      1.000E-01
    74    5.000E+00 5.000E+00                      1.000E-01
    75    5.000E+00 5.000E+00                      1.000E-01
    76    5.000E+00 5.000E+00                      1.000E-01
    77    5.000E+00 5.000E+00                      1.000E-01
    78    5.000E+00 5.000E+00                      1.000E-01
    79    5.000E+00 5.000E+00                      1.000E-01
    80    5.000E+00 5.000E+00                      1.000E-01
    81    5.000E+00 5.000E+00                      1.000E-01
    82    5.000E+00 5.000E+00                      1.000E-01
    83    5.000E+00 5.000E+00                      1.000E-01
    84    5.000E+00 5.000E+00                      1.000E-01
    85    5.000E+00 5.000E+00                      1.000E-01
    86    5.000E+00 5.000E+00                      1.000E-01
    87    5.000E+00 5.000E+00                      1.000E-01
    88    5.000E+00 5.000E+00                      1.000E-01
    89    5.000E+00 5.000E+00                      1.000E-01
    90    5.000E+00 5.000E+00                      1.000E-01
    91    5.000E+00 5.000E+00                      1.000E-01
    92    5.000E+00 5.000E+00                      1.000E-01
    93    5.000E+00 5.000E+00                      1.000E-01
    94    5.000E+00 5.000E+00                      1.000E-01
    95    5.000E+00 5.000E+00                      1.000E-01
    96    5.000E+00 5.000E+00                      1.000E-01
    97    5.000E+00 5.000E+00                      1.000E-01
    98    5.000E+00 5.000E+00                      1.000E-01
    99    5.000E+00 5.000E+00                      1.000E-01
   100    5.000E+00 5.000E+00                      1.000E-01
   101    5.000E+00 5.000E+00                      1.000E-01
   102    5.000E+00 5.000E+00                      1.000E-01
   103    5.000E+00 5.000E+00                      1.000E-01
   104    5.000E+00 5.000E+00                      1.000E-01
   105    5.000E+00 5.000E+00                      1.000E-01
   106    5.000E+00 5.000E+00                      1.000E-01
   107    5.000E+00 5.000E+00                      1.000E-01
   108    5.000E+00 5.000E+00                      1.000E-01
   109    5.000E+00 5.000E+00                      1.000E-01
   110    5.000E+00 5.000E+00                      1.000E-01
   111    5.000E+00 5.000E+00                      1.000E-01
   112    5.000E+00 5.000E+00                      1.000E-01
   113    5.000E+00 5.000E+00                      1.000E-01
   114    5.000E+00 5.000E+00                      1.000E-01
   115    5.000E+00 5.000E+00                      1.000E-01
   116    5.000E+00 5.000E+00                      1.000E-01
   117    5.000E+00 5.000E+00                      1.000E-01
   118    5.000E+00 5.000E+00                      1.000E-01
   119    5.000E+00 5.000E+00                      1.000E-01
   120    5.000E+00 5.000E+00                      1.000E-01
   121    5.000E+00 5.000E+00                      1.000E-01
   122    5.000E+00 5.000E+00                      1.000E-01
   123    5.000E+00 5.000E+00                      1.000E-01
   124    5.000E+00 5.000E+00                      1.000E-01
   125    5.000E+00 5.000E+00                      1.000E-01
   126    5.000E+00 5.000E+00                      1.000E-01
   127    5.000E+00 5.000E+00                      1.000E-01
   128    5.000E+00 5.000E+00                      1.000E-01
   129    5.000E+00 5.000E+00                      1.000E-01
   130    5.000E+00 5.000E+00                      1.000E-01
   131    5.000E+00 5.000E+00                      1.000E-01
   132    5.000E+00 5.000E+00                      1.000E-01
   133    5.000E+00 5.000E+00                      1.000E-01
   134    5.000E+00 5.000E+00                      1.000E-01
   135    5.000E+00 5.000E+00                      1.000E-01
   136    5.000E+00 5.000E+00                      1.000E-01
   137    5.000E+00 5.000E+00                      1.000E-01
   138    5.000E+00 5.000E+00                      1.000E-01
   139    5.000E+00 5.000E+00                      1.000E-01
   140    5.000E+00 5.000E+00                      1.000E-01
   141    5.000E+00 5.000E+00                      1.000E-01
   142    5.000E+00 5.000E+00                      1.000E-01
   143    5.000E+00 5.000E+00                      1.000E-01
   144    5.000E+00 5.000E+00                      1.000E-01
   145    5.000E+00 5.000E+00                      1.000E-01
   146    5.000E+00 5.000E+00                      1.000E-01
   147    5.000E+00 5.000E+00                      1.000E-01
   148    5.000E+00 5.000E+00                      1.000E-01
   149    5.000E+00 5.000E+00                      1.000E-01
   150    5.000E+00 5.000E+00                      1.000E-01
   151    5.000E+00 5.000E+00                      1.000E-01
   152    5.000E+00 5.000E+00                      1.000E-01
   153    5.000E+00 5.000E+00                      1.000E-01
   154    5.000E+00 5.000E+00                      1.000E-01
   155    5.000E+00 5.000E+00                      1.000E-01
   156    5.000E+00 5.000E+00                      1.000E-01
   157    5.000E+00 5.000E+00                      1.000E-01
   158    5.000E+00 5.000E+00                      1.000E-01
   159    5.000E+00 5.000E+00                      1.000E-01
   160    5.000E+00 5.000E+00                      1.000E-01



 
 SOLVING FOR HEAD 


 OUTER ITERATION SUMMARY
 -----------------------
 BT: Backtracking; LA: Linear Acceleration; UR: Under-relaxation

    Outer-Iteration  Inner-Iteration    Maximum Head Change  Maximum Head Change
        Number           Count               Value              Location
LA         1                7               0.13632                  3324           GWF-node number
LA         2                5               0.45909E-02              1299           GWF-node number
LA         3                2               0.19155E-03              1425           GWF-node number
LA         4                1               0.18463E-04              2796           GWF-node number


     4 CALLS TO SPARSE MATRIX SOLVER PACKAGE  IN FLOW TIME STEP   1 STRESS PERIOD  11

 TOTAL OF       4OUTER ITERATIONS
  MAXIMUM CHANGE FOR EACH ITERATION:
   MAX. CHANGE        NODE  MAX. CHANGE        NODE  MAX. CHANGE        NODE  MAX. CHANGE        NODE  MAX. CHANGE        NODE
 ------------------------------------------------------------------------------------------------------------------------------------
   0.13632    ,       3324  0.45909E-02,       1299  0.19155E-03,       1425  0.18463E-04,       2796

 OUTPUT CONTROL FOR STRESS PERIOD       11   TIME STEP        1
    SAVE HEAD FOR ALL LAYERS
    SAVE BUDGET
 UBDSV1U SAVING "         STORAGE" ON UNIT  50 AT TIME STEP      1, STRESS PERIOD     11
 UBDSV2U SAVING "   CONSTANT HEAD" ON UNIT  50 AT TIME STEP      1, STRESS PERIOD     11
 UBDSV1U SAVING "   FLOW JA FACE " ON UNIT  50 AT TIME STEP      1, STRESS PERIOD     11
 UBDSV4U SAVING "           WELLS" ON UNIT  50 AT TIME STEP      1, STRESS PERIOD     11
 UBDSV4U SAVING " HEAD DEP BOUNDS" ON UNIT  50 AT TIME STEP      1, STRESS PERIOD     11
 UBDSV3U SAVING "        RECHARGE" ON UNIT  50 AT TIME STEP      1, STRESS PERIOD     11
 UBDSV2U SAVING "  STREAM LEAKAGE" ON UNIT  50 AT TIME STEP      1, STRESS PERIOD     11




 HEAD WILL BE SAVED ON UNIT   51 AT END OF TIME STEP   1, STRESS PERIOD   11
1
  VOLUMETRIC BUDGET FOR ENTIRE MODEL AT END OF TIME STEP       1 IN STRESS PERIOD      11
  ---------------------------------------------------------------------------------------

     CUMULATIVE VOLUMES      L**3       RATES FOR THIS TIME STEP      L**3/T
     ------------------                 ------------------------

           IN:                                      IN:
           ---                                      ---
             STORAGE =      342724.0954               STORAGE =         137.1851
       CONSTANT HEAD =           0.0000         CONSTANT HEAD =           0.0000
               WELLS =           0.0000                 WELLS =           0.0000
     HEAD DEP BOUNDS =      106728.2495       HEAD DEP BOUNDS =         635.7359
            RECHARGE =      766238.7478              RECHARGE =        1986.6936
      STREAM LEAKAGE =       47371.1256        STREAM LEAKAGE =         678.7972

            TOTAL IN =     1263062.2183              TOTAL IN =        3438.4118

          OUT:                                     OUT:
          ----                                     ----
             STORAGE =      178909.9514               STORAGE =         252.8103
       CONSTANT HEAD =           0.0000         CONSTANT HEAD =           0.0000
               WELLS =      773472.7150                 WELLS =        2954.3674
     HEAD DEP BOUNDS =      157964.2536       HEAD DEP BOUNDS =         127.4964
            RECHARGE =           0.0000              RECHARGE =           0.0000
      STREAM LEAKAGE =      152717.3758        STREAM LEAKAGE =         103.7292

           TOTAL OUT =     1263064.2959             TOTAL OUT =        3438.4033

            IN - OUT =          -2.0776              IN - OUT =       8.5215E-03

 PERCENT DISCREPANCY =          -0.00     PERCENT DISCREPANCY =           0.00






          TIME SUMMARY AT END OF TIME STEP         1 IN STRESS PERIOD        11
                    SECONDS     MINUTES      HOURS       DAYS        YEARS
                    -----------------------------------------------------------
   TIME STEP LENGTH 2.67840E+06  44640.      744.00      31.000     8.48734E-02
 STRESS PERIOD TIME 2.67840E+06  44640.      744.00      31.000     8.48734E-02
         TOTAL TIME 2.64384E+07 4.40640E+05  7344.0      306.00     0.83778    
1
1
                            STRESS PERIOD NO.   12, LENGTH =   30.00000    
                            -----------------------------------------------

                              NUMBER OF TIME STEPS =     1

                               MULTIPLIER FOR DELT =     1.000

                            INITIAL TIME STEP SIZE =   30.00000    

 WEL -- WELL PACKAGE, VERSION 7, 5/2/2005 INPUT READ FROM UNIT   20

 WELL NO.      NODE       STRESS FACTOR         
 -----------------------------------------------
      1        3324      -364.3    
      2        3409      -364.3    
      3        3737      -364.3    
      4        3971      -364.3    
      5        4092      -364.3    
      6        4297      -364.3    

      6 WELLS

 GHB -- GENERAL-HEAD BOUNDARY PACKAGE, VERSION 7, 5/2/2005
         INPUT READ FROM UNIT   30

 BOUND NO.     NODE         STAGE         CONDUCTANCE         
 -------------------------------------------------------------
      1        1473       33.50           70.00    
      2        1474       33.50           70.00    
      3        1475       33.50           70.00    
      4        1476       33.50           70.00    
      5        1477       33.50           70.00    
      6        1478       33.50           70.00    
      7        1479       33.50           70.00    
      8        1480       33.50           70.00    
      9        1481       33.50           70.00    
     10        1482       33.50           70.00    
     11        2972       33.50           70.00    
     12        2973       33.50           70.00    
     13        2974       33.50           70.00    
     14        2975       33.50           70.00    
     15        2976       33.50           70.00    
     16        2977       33.50           70.00    
     17        2978       33.50           70.00    
     18        2979       33.50           70.00    
     19        2980       33.50           70.00    
     20        2981       33.50           70.00    
     21        4471       33.50           70.00    
     22        4472       33.50           70.00    
     23        4473       33.50           70.00    
     24        4474       33.50           70.00    
     25        4475       33.50           70.00    
     26        4476       33.50           70.00    
     27        4477       33.50           70.00    
     28        4478       33.50           70.00    
     29        4479       33.50           70.00    
     30        4480       33.50           70.00    
     31        2999       35.50           70.00    
     32        3000       35.50           70.00    
     33        3001       35.50           70.00    
     34        3002       35.50           70.00    
     35        3003       35.50           70.00    
     36        3004       35.50           70.00    
     37        3005       35.50           70.00    
     38        3006       35.50           70.00    
     39        3007       35.50           70.00    
     40        3008       35.50           70.00    
     41        3009       35.50           70.00    
     42        3010       35.50           70.00    
     43        3011       35.50           70.00    
     44        3012       35.50           70.00    
     45        3013       35.50           70.00    
     46        3023       35.50           4.375    
     47        3027       35.50           17.50    
     48        3028       35.50           70.00    
     49        3029       35.50           70.00    
     50        3030       35.50           70.00    

     50 GHB CELLS

 RCH -- RECHARGE PACKAGE, VERSION 7, 5/2/2005 INPUT READ FROM UNIT   31



                           RECHARGE
 READING ON UNIT   31 WITH FORMAT: (1499E15.6)         



 CLASSIFICATION & COUNT OF STREAM SEGMENTS BASED ON SOURCE OF INFLOW:

                HEADWATER     DIVERSION     RECEIVES TRIBUTARY FLOW
                ---------     ---------     -----------------------
                     1              0             159



                    INPUT DATA FOR EACH STREAM SEGMENT
 ---------------------------------------------------------------------------------------------

 SEGMENT    SEG.     INFLOW   OVERLAND   STREAM    STREAM   ICALC  OUTFLOW  DIVERSION PRIORITY
    NO.    LENGTH     RATE     RUNOFF      ET       PPT.    METH.  TO SEG.  FROM SEG.    NO.

      1  6.250E+01 1.117E+04 0.000E+00 0.000E+00 0.000E+00    1        2        0        0
      2  6.250E+01 0.000E+00 0.000E+00 0.000E+00 0.000E+00    1        3        0        0
      3  6.250E+01 0.000E+00 0.000E+00 0.000E+00 0.000E+00    1        4        0        0
      4  6.250E+01 0.000E+00 0.000E+00 0.000E+00 0.000E+00    1        5        0        0
      5  6.250E+01 0.000E+00 0.000E+00 0.000E+00 0.000E+00    1        6        0        0
      6  6.250E+01 0.000E+00 0.000E+00 0.000E+00 0.000E+00    1        7        0        0
      7  6.250E+01 0.000E+00 0.000E+00 0.000E+00 0.000E+00    1        8        0        0
      8  6.250E+01 0.000E+00 0.000E+00 0.000E+00 0.000E+00    1        9        0        0
      9  6.250E+01 0.000E+00 0.000E+00 0.000E+00 0.000E+00    1       10        0        0
     10  6.250E+01 0.000E+00 0.000E+00 0.000E+00 0.000E+00    1       11        0        0
     11  6.250E+01 0.000E+00 0.000E+00 0.000E+00 0.000E+00    1       12        0        0
     12  6.250E+01 0.000E+00 0.000E+00 0.000E+00 0.000E+00    1       13        0        0
     13  6.250E+01 0.000E+00 0.000E+00 0.000E+00 0.000E+00    1       14        0        0
     14  6.250E+01 0.000E+00 0.000E+00 0.000E+00 0.000E+00    1       15        0        0
     15  6.250E+01 0.000E+00 0.000E+00 0.000E+00 0.000E+00    1       16        0        0
     16  6.250E+01 0.000E+00 0.000E+00 0.000E+00 0.000E+00    1       17        0        0
     17  6.250E+01 0.000E+00 0.000E+00 0.000E+00 0.000E+00    1       18        0        0
     18  6.250E+01 0.000E+00 0.000E+00 0.000E+00 0.000E+00    1       19        0        0
     19  6.250E+01 0.000E+00 0.000E+00 0.000E+00 0.000E+00    1       20        0        0
     20  6.250E+01 0.000E+00 0.000E+00 0.000E+00 0.000E+00    1       21        0        0
     21  6.250E+01 0.000E+00 0.000E+00 0.000E+00 0.000E+00    1       22        0        0
     22  6.250E+01 0.000E+00 0.000E+00 0.000E+00 0.000E+00    1       23        0        0
     23  6.250E+01 0.000E+00 0.000E+00 0.000E+00 0.000E+00    1       24        0        0
     24  6.250E+01 0.000E+00 0.000E+00 0.000E+00 0.000E+00    1       25        0        0
     25  6.250E+01 0.000E+00 0.000E+00 0.000E+00 0.000E+00    1       26        0        0
     26  6.250E+01 0.000E+00 0.000E+00 0.000E+00 0.000E+00    1       27        0        0
     27  6.250E+01 0.000E+00 0.000E+00 0.000E+00 0.000E+00    1       28        0        0
     28  6.250E+01 0.000E+00 0.000E+00 0.000E+00 0.000E+00    1       29        0        0
     29  6.250E+01 0.000E+00 0.000E+00 0.000E+00 0.000E+00    1       30        0        0
     30  6.250E+01 0.000E+00 0.000E+00 0.000E+00 0.000E+00    1       31        0        0
     31  6.250E+01 0.000E+00 0.000E+00 0.000E+00 0.000E+00    1       32        0        0
     32  6.250E+01 0.000E+00 0.000E+00 0.000E+00 0.000E+00    1       33        0        0
     33  6.250E+01 0.000E+00 0.000E+00 0.000E+00 0.000E+00    1       34        0        0
     34  6.250E+01 0.000E+00 0.000E+00 0.000E+00 0.000E+00    1       35        0        0
     35  6.250E+01 0.000E+00 0.000E+00 0.000E+00 0.000E+00    1       36        0        0
     36  6.250E+01 0.000E+00 0.000E+00 0.000E+00 0.000E+00    1       37        0        0
     37  6.250E+01 0.000E+00 0.000E+00 0.000E+00 0.000E+00    1       38        0        0
     38  6.250E+01 0.000E+00 0.000E+00 0.000E+00 0.000E+00    1       39        0        0
     39  6.250E+01 0.000E+00 0.000E+00 0.000E+00 0.000E+00    1       40        0        0
     40  6.250E+01 0.000E+00 0.000E+00 0.000E+00 0.000E+00    1       41        0        0
     41  6.250E+01 0.000E+00 0.000E+00 0.000E+00 0.000E+00    1       42        0        0
     42  6.250E+01 0.000E+00 0.000E+00 0.000E+00 0.000E+00    1       43        0        0
     43  6.250E+01 0.000E+00 0.000E+00 0.000E+00 0.000E+00    1       44        0        0
     44  6.250E+01 0.000E+00 0.000E+00 0.000E+00 0.000E+00    1       45        0        0
     45  6.250E+01 0.000E+00 0.000E+00 0.000E+00 0.000E+00    1       46        0        0
     46  6.250E+01 0.000E+00 0.000E+00 0.000E+00 0.000E+00    1       47        0        0
     47  6.250E+01 0.000E+00 0.000E+00 0.000E+00 0.000E+00    1       48        0        0
     48  6.250E+01 0.000E+00 0.000E+00 0.000E+00 0.000E+00    1       49        0        0
     49  6.250E+01 0.000E+00 0.000E+00 0.000E+00 0.000E+00    1       50        0        0
     50  6.250E+01 0.000E+00 0.000E+00 0.000E+00 0.000E+00    1       51        0        0
     51  6.250E+01 0.000E+00 0.000E+00 0.000E+00 0.000E+00    1       52        0        0
     52  6.250E+01 0.000E+00 0.000E+00 0.000E+00 0.000E+00    1       53        0        0
     53  6.250E+01 0.000E+00 0.000E+00 0.000E+00 0.000E+00    1       54        0        0
     54  6.250E+01 0.000E+00 0.000E+00 0.000E+00 0.000E+00    1       55        0        0
     55  6.250E+01 0.000E+00 0.000E+00 0.000E+00 0.000E+00    1       56        0        0
     56  6.250E+01 0.000E+00 0.000E+00 0.000E+00 0.000E+00    1       57        0        0
     57  6.250E+01 0.000E+00 0.000E+00 0.000E+00 0.000E+00    1       58        0        0
     58  6.250E+01 0.000E+00 0.000E+00 0.000E+00 0.000E+00    1       59        0        0
     59  6.250E+01 0.000E+00 0.000E+00 0.000E+00 0.000E+00    1       60        0        0
     60  6.250E+01 0.000E+00 0.000E+00 0.000E+00 0.000E+00    1       61        0        0
     61  6.250E+01 0.000E+00 0.000E+00 0.000E+00 0.000E+00    1       62        0        0
     62  6.250E+01 0.000E+00 0.000E+00 0.000E+00 0.000E+00    1       63        0        0
     63  6.250E+01 0.000E+00 0.000E+00 0.000E+00 0.000E+00    1       64        0        0
     64  6.250E+01 0.000E+00 0.000E+00 0.000E+00 0.000E+00    1       65        0        0
     65  6.250E+01 0.000E+00 0.000E+00 0.000E+00 0.000E+00    1       66        0        0
     66  6.250E+01 0.000E+00 0.000E+00 0.000E+00 0.000E+00    1       67        0        0
     67  6.250E+01 0.000E+00 0.000E+00 0.000E+00 0.000E+00    1       68        0        0
     68  6.250E+01 0.000E+00 0.000E+00 0.000E+00 0.000E+00    1       69        0        0
     69  6.250E+01 0.000E+00 0.000E+00 0.000E+00 0.000E+00    1       70        0        0
     70  6.250E+01 0.000E+00 0.000E+00 0.000E+00 0.000E+00    1       71        0        0
     71  6.250E+01 0.000E+00 0.000E+00 0.000E+00 0.000E+00    1       72        0        0
     72  6.250E+01 0.000E+00 0.000E+00 0.000E+00 0.000E+00    1       73        0        0
     73  6.250E+01 0.000E+00 0.000E+00 0.000E+00 0.000E+00    1       74        0        0
     74  6.250E+01 0.000E+00 0.000E+00 0.000E+00 0.000E+00    1       75        0        0
     75  6.250E+01 0.000E+00 0.000E+00 0.000E+00 0.000E+00    1       76        0        0
     76  6.250E+01 0.000E+00 0.000E+00 0.000E+00 0.000E+00    1       77        0        0
     77  6.250E+01 0.000E+00 0.000E+00 0.000E+00 0.000E+00    1       78        0        0
     78  6.250E+01 0.000E+00 0.000E+00 0.000E+00 0.000E+00    1       79        0        0
     79  6.250E+01 0.000E+00 0.000E+00 0.000E+00 0.000E+00    1       80        0        0
     80  6.250E+01 0.000E+00 0.000E+00 0.000E+00 0.000E+00    1       81        0        0
     81  6.250E+01 0.000E+00 0.000E+00 0.000E+00 0.000E+00    1       82        0        0
     82  6.250E+01 0.000E+00 0.000E+00 0.000E+00 0.000E+00    1       83        0        0
     83  6.250E+01 0.000E+00 0.000E+00 0.000E+00 0.000E+00    1       84        0        0
     84  6.250E+01 0.000E+00 0.000E+00 0.000E+00 0.000E+00    1       85        0        0
     85  6.250E+01 0.000E+00 0.000E+00 0.000E+00 0.000E+00    1       86        0        0
     86  6.250E+01 0.000E+00 0.000E+00 0.000E+00 0.000E+00    1       87        0        0
     87  6.250E+01 0.000E+00 0.000E+00 0.000E+00 0.000E+00    1       88        0        0
     88  6.250E+01 0.000E+00 0.000E+00 0.000E+00 0.000E+00    1       89        0        0
     89  6.250E+01 0.000E+00 0.000E+00 0.000E+00 0.000E+00    1       90        0        0
     90  6.250E+01 0.000E+00 0.000E+00 0.000E+00 0.000E+00    1       91        0        0
     91  6.250E+01 0.000E+00 0.000E+00 0.000E+00 0.000E+00    1       92        0        0
     92  6.250E+01 0.000E+00 0.000E+00 0.000E+00 0.000E+00    1       93        0        0
     93  6.250E+01 0.000E+00 0.000E+00 0.000E+00 0.000E+00    1       94        0        0
     94  6.250E+01 0.000E+00 0.000E+00 0.000E+00 0.000E+00    1       95        0        0
     95  6.250E+01 0.000E+00 0.000E+00 0.000E+00 0.000E+00    1       96        0        0
     96  6.250E+01 0.000E+00 0.000E+00 0.000E+00 0.000E+00    1       97        0        0
     97  6.250E+01 0.000E+00 0.000E+00 0.000E+00 0.000E+00    1       98        0        0
     98  6.250E+01 0.000E+00 0.000E+00 0.000E+00 0.000E+00    1       99        0        0
     99  6.250E+01 0.000E+00 0.000E+00 0.000E+00 0.000E+00    1      100        0        0
    100  6.250E+01 0.000E+00 0.000E+00 0.000E+00 0.000E+00    1      101        0        0
    101  6.250E+01 0.000E+00 0.000E+00 0.000E+00 0.000E+00    1      102        0        0
    102  6.250E+01 0.000E+00 0.000E+00 0.000E+00 0.000E+00    1      103        0        0
    103  6.250E+01 0.000E+00 0.000E+00 0.000E+00 0.000E+00    1      104        0        0
    104  6.250E+01 0.000E+00 0.000E+00 0.000E+00 0.000E+00    1      105        0        0
    105  6.250E+01 0.000E+00 0.000E+00 0.000E+00 0.000E+00    1      106        0        0
    106  6.250E+01 0.000E+00 0.000E+00 0.000E+00 0.000E+00    1      107        0        0
    107  6.250E+01 0.000E+00 0.000E+00 0.000E+00 0.000E+00    1      108        0        0
    108  6.250E+01 0.000E+00 0.000E+00 0.000E+00 0.000E+00    1      109        0        0
    109  6.250E+01 0.000E+00 0.000E+00 0.000E+00 0.000E+00    1      110        0        0
    110  6.250E+01 0.000E+00 0.000E+00 0.000E+00 0.000E+00    1      111        0        0
    111  6.250E+01 0.000E+00 0.000E+00 0.000E+00 0.000E+00    1      112        0        0
    112  6.250E+01 0.000E+00 0.000E+00 0.000E+00 0.000E+00    1      113        0        0
    113  6.250E+01 0.000E+00 0.000E+00 0.000E+00 0.000E+00    1      114        0        0
    114  6.250E+01 0.000E+00 0.000E+00 0.000E+00 0.000E+00    1      115        0        0
    115  6.250E+01 0.000E+00 0.000E+00 0.000E+00 0.000E+00    1      116        0        0
    116  6.250E+01 0.000E+00 0.000E+00 0.000E+00 0.000E+00    1      117        0        0
    117  6.250E+01 0.000E+00 0.000E+00 0.000E+00 0.000E+00    1      118        0        0
    118  6.250E+01 0.000E+00 0.000E+00 0.000E+00 0.000E+00    1      119        0        0
    119  6.250E+01 0.000E+00 0.000E+00 0.000E+00 0.000E+00    1      120        0        0
    120  6.250E+01 0.000E+00 0.000E+00 0.000E+00 0.000E+00    1      121        0        0
    121  6.250E+01 0.000E+00 0.000E+00 0.000E+00 0.000E+00    1      122        0        0
    122  6.250E+01 0.000E+00 0.000E+00 0.000E+00 0.000E+00    1      123        0        0
    123  6.250E+01 0.000E+00 0.000E+00 0.000E+00 0.000E+00    1      124        0        0
    124  6.250E+01 0.000E+00 0.000E+00 0.000E+00 0.000E+00    1      125        0        0
    125  6.250E+01 0.000E+00 0.000E+00 0.000E+00 0.000E+00    1      126        0        0
    126  6.250E+01 0.000E+00 0.000E+00 0.000E+00 0.000E+00    1      127        0        0
    127  6.250E+01 0.000E+00 0.000E+00 0.000E+00 0.000E+00    1      128        0        0
    128  6.250E+01 0.000E+00 0.000E+00 0.000E+00 0.000E+00    1      129        0        0
    129  6.250E+01 0.000E+00 0.000E+00 0.000E+00 0.000E+00    1      130        0        0
    130  6.250E+01 0.000E+00 0.000E+00 0.000E+00 0.000E+00    1      131        0        0
    131  6.250E+01 0.000E+00 0.000E+00 0.000E+00 0.000E+00    1      132        0        0
    132  6.250E+01 0.000E+00 0.000E+00 0.000E+00 0.000E+00    1      133        0        0
    133  6.250E+01 0.000E+00 0.000E+00 0.000E+00 0.000E+00    1      134        0        0
    134  6.250E+01 0.000E+00 0.000E+00 0.000E+00 0.000E+00    1      135        0        0
    135  6.250E+01 0.000E+00 0.000E+00 0.000E+00 0.000E+00    1      136        0        0
    136  6.250E+01 0.000E+00 0.000E+00 0.000E+00 0.000E+00    1      137        0        0
    137  6.250E+01 0.000E+00 0.000E+00 0.000E+00 0.000E+00    1      138        0        0
    138  6.250E+01 0.000E+00 0.000E+00 0.000E+00 0.000E+00    1      139        0        0
    139  6.250E+01 0.000E+00 0.000E+00 0.000E+00 0.000E+00    1      140        0        0
    140  6.250E+01 0.000E+00 0.000E+00 0.000E+00 0.000E+00    1      141        0        0
    141  6.250E+01 0.000E+00 0.000E+00 0.000E+00 0.000E+00    1      142        0        0
    142  6.250E+01 0.000E+00 0.000E+00 0.000E+00 0.000E+00    1      143        0        0
    143  6.250E+01 0.000E+00 0.000E+00 0.000E+00 0.000E+00    1      144        0        0
    144  6.250E+01 0.000E+00 0.000E+00 0.000E+00 0.000E+00    1      145        0        0
    145  6.250E+01 0.000E+00 0.000E+00 0.000E+00 0.000E+00    1      146        0        0
    146  6.250E+01 0.000E+00 0.000E+00 0.000E+00 0.000E+00    1      147        0        0
    147  6.250E+01 0.000E+00 0.000E+00 0.000E+00 0.000E+00    1      148        0        0
    148  6.250E+01 0.000E+00 0.000E+00 0.000E+00 0.000E+00    1      149        0        0
    149  6.250E+01 0.000E+00 0.000E+00 0.000E+00 0.000E+00    1      150        0        0
    150  6.250E+01 0.000E+00 0.000E+00 0.000E+00 0.000E+00    1      151        0        0
    151  6.250E+01 0.000E+00 0.000E+00 0.000E+00 0.000E+00    1      152        0        0
    152  6.250E+01 0.000E+00 0.000E+00 0.000E+00 0.000E+00    1      153        0        0
    153  6.250E+01 0.000E+00 0.000E+00 0.000E+00 0.000E+00    1      154        0        0
    154  6.250E+01 0.000E+00 0.000E+00 0.000E+00 0.000E+00    1      155        0        0
    155  6.250E+01 0.000E+00 0.000E+00 0.000E+00 0.000E+00    1      156        0        0
    156  6.250E+01 0.000E+00 0.000E+00 0.000E+00 0.000E+00    1      157        0        0
    157  6.250E+01 0.000E+00 0.000E+00 0.000E+00 0.000E+00    1      158        0        0
    158  6.250E+01 0.000E+00 0.000E+00 0.000E+00 0.000E+00    1      159        0        0
    159  6.250E+01 0.000E+00 0.000E+00 0.000E+00 0.000E+00    1      160        0        0
    160  6.250E+01 0.000E+00 0.000E+00 0.000E+00 0.000E+00    1      161        0        0


         STREAMBED PROPERTIES AND STREAM DIMENSIONS

 SEGMENT     WIDTH OF STREAM     DEPTH OF STREAM    STREAM ROUGHNESS
    No.     UPPER     LOWER     UPPER     LOWER     CHANNEL      BANK

     1    5.000E+00 5.000E+00                      1.000E-01
     2    5.000E+00 5.000E+00                      1.000E-01
     3    5.000E+00 5.000E+00                      1.000E-01
     4    5.000E+00 5.000E+00                      1.000E-01
     5    5.000E+00 5.000E+00                      1.000E-01
     6    5.000E+00 5.000E+00                      1.000E-01
     7    5.000E+00 5.000E+00                      1.000E-01
     8    5.000E+00 5.000E+00                      1.000E-01
     9    5.000E+00 5.000E+00                      1.000E-01
    10    5.000E+00 5.000E+00                      1.000E-01
    11    5.000E+00 5.000E+00                      1.000E-01
    12    5.000E+00 5.000E+00                      1.000E-01
    13    5.000E+00 5.000E+00                      1.000E-01
    14    5.000E+00 5.000E+00                      1.000E-01
    15    5.000E+00 5.000E+00                      1.000E-01
    16    5.000E+00 5.000E+00                      1.000E-01
    17    5.000E+00 5.000E+00                      1.000E-01
    18    5.000E+00 5.000E+00                      1.000E-01
    19    5.000E+00 5.000E+00                      1.000E-01
    20    5.000E+00 5.000E+00                      1.000E-01
    21    5.000E+00 5.000E+00                      1.000E-01
    22    5.000E+00 5.000E+00                      1.000E-01
    23    5.000E+00 5.000E+00                      1.000E-01
    24    5.000E+00 5.000E+00                      1.000E-01
    25    5.000E+00 5.000E+00                      1.000E-01
    26    5.000E+00 5.000E+00                      1.000E-01
    27    5.000E+00 5.000E+00                      1.000E-01
    28    5.000E+00 5.000E+00                      1.000E-01
    29    5.000E+00 5.000E+00                      1.000E-01
    30    5.000E+00 5.000E+00                      1.000E-01
    31    5.000E+00 5.000E+00                      1.000E-01
    32    5.000E+00 5.000E+00                      1.000E-01
    33    5.000E+00 5.000E+00                      1.000E-01
    34    5.000E+00 5.000E+00                      1.000E-01
    35    5.000E+00 5.000E+00                      1.000E-01
    36    5.000E+00 5.000E+00                      1.000E-01
    37    5.000E+00 5.000E+00                      1.000E-01
    38    5.000E+00 5.000E+00                      1.000E-01
    39    5.000E+00 5.000E+00                      1.000E-01
    40    5.000E+00 5.000E+00                      1.000E-01
    41    5.000E+00 5.000E+00                      1.000E-01
    42    5.000E+00 5.000E+00                      1.000E-01
    43    5.000E+00 5.000E+00                      1.000E-01
    44    5.000E+00 5.000E+00                      1.000E-01
    45    5.000E+00 5.000E+00                      1.000E-01
    46    5.000E+00 5.000E+00                      1.000E-01
    47    5.000E+00 5.000E+00                      1.000E-01
    48    5.000E+00 5.000E+00                      1.000E-01
    49    5.000E+00 5.000E+00                      1.000E-01
    50    5.000E+00 5.000E+00                      1.000E-01
    51    5.000E+00 5.000E+00                      1.000E-01
    52    5.000E+00 5.000E+00                      1.000E-01
    53    5.000E+00 5.000E+00                      1.000E-01
    54    5.000E+00 5.000E+00                      1.000E-01
    55    5.000E+00 5.000E+00                      1.000E-01
    56    5.000E+00 5.000E+00                      1.000E-01
    57    5.000E+00 5.000E+00                      1.000E-01
    58    5.000E+00 5.000E+00                      1.000E-01
    59    5.000E+00 5.000E+00                      1.000E-01
    60    5.000E+00 5.000E+00                      1.000E-01
    61    5.000E+00 5.000E+00                      1.000E-01
    62    5.000E+00 5.000E+00                      1.000E-01
    63    5.000E+00 5.000E+00                      1.000E-01
    64    5.000E+00 5.000E+00                      1.000E-01
    65    5.000E+00 5.000E+00                      1.000E-01
    66    5.000E+00 5.000E+00                      1.000E-01
    67    5.000E+00 5.000E+00                      1.000E-01
    68    5.000E+00 5.000E+00                      1.000E-01
    69    5.000E+00 5.000E+00                      1.000E-01
    70    5.000E+00 5.000E+00                      1.000E-01
    71    5.000E+00 5.000E+00                      1.000E-01
    72    5.000E+00 5.000E+00                      1.000E-01
    73    5.000E+00 5.000E+00                      1.000E-01
    74    5.000E+00 5.000E+00                      1.000E-01
    75    5.000E+00 5.000E+00                      1.000E-01
    76    5.000E+00 5.000E+00                      1.000E-01
    77    5.000E+00 5.000E+00                      1.000E-01
    78    5.000E+00 5.000E+00                      1.000E-01
    79    5.000E+00 5.000E+00                      1.000E-01
    80    5.000E+00 5.000E+00                      1.000E-01
    81    5.000E+00 5.000E+00                      1.000E-01
    82    5.000E+00 5.000E+00                      1.000E-01
    83    5.000E+00 5.000E+00                      1.000E-01
    84    5.000E+00 5.000E+00                      1.000E-01
    85    5.000E+00 5.000E+00                      1.000E-01
    86    5.000E+00 5.000E+00                      1.000E-01
    87    5.000E+00 5.000E+00                      1.000E-01
    88    5.000E+00 5.000E+00                      1.000E-01
    89    5.000E+00 5.000E+00                      1.000E-01
    90    5.000E+00 5.000E+00                      1.000E-01
    91    5.000E+00 5.000E+00                      1.000E-01
    92    5.000E+00 5.000E+00                      1.000E-01
    93    5.000E+00 5.000E+00                      1.000E-01
    94    5.000E+00 5.000E+00                      1.000E-01
    95    5.000E+00 5.000E+00                      1.000E-01
    96    5.000E+00 5.000E+00                      1.000E-01
    97    5.000E+00 5.000E+00                      1.000E-01
    98    5.000E+00 5.000E+00                      1.000E-01
    99    5.000E+00 5.000E+00                      1.000E-01
   100    5.000E+00 5.000E+00                      1.000E-01
   101    5.000E+00 5.000E+00                      1.000E-01
   102    5.000E+00 5.000E+00                      1.000E-01
   103    5.000E+00 5.000E+00                      1.000E-01
   104    5.000E+00 5.000E+00                      1.000E-01
   105    5.000E+00 5.000E+00                      1.000E-01
   106    5.000E+00 5.000E+00                      1.000E-01
   107    5.000E+00 5.000E+00                      1.000E-01
   108    5.000E+00 5.000E+00                      1.000E-01
   109    5.000E+00 5.000E+00                      1.000E-01
   110    5.000E+00 5.000E+00                      1.000E-01
   111    5.000E+00 5.000E+00                      1.000E-01
   112    5.000E+00 5.000E+00                      1.000E-01
   113    5.000E+00 5.000E+00                      1.000E-01
   114    5.000E+00 5.000E+00                      1.000E-01
   115    5.000E+00 5.000E+00                      1.000E-01
   116    5.000E+00 5.000E+00                      1.000E-01
   117    5.000E+00 5.000E+00                      1.000E-01
   118    5.000E+00 5.000E+00                      1.000E-01
   119    5.000E+00 5.000E+00                      1.000E-01
   120    5.000E+00 5.000E+00                      1.000E-01
   121    5.000E+00 5.000E+00                      1.000E-01
   122    5.000E+00 5.000E+00                      1.000E-01
   123    5.000E+00 5.000E+00                      1.000E-01
   124    5.000E+00 5.000E+00                      1.000E-01
   125    5.000E+00 5.000E+00                      1.000E-01
   126    5.000E+00 5.000E+00                      1.000E-01
   127    5.000E+00 5.000E+00                      1.000E-01
   128    5.000E+00 5.000E+00                      1.000E-01
   129    5.000E+00 5.000E+00                      1.000E-01
   130    5.000E+00 5.000E+00                      1.000E-01
   131    5.000E+00 5.000E+00                      1.000E-01
   132    5.000E+00 5.000E+00                      1.000E-01
   133    5.000E+00 5.000E+00                      1.000E-01
   134    5.000E+00 5.000E+00                      1.000E-01
   135    5.000E+00 5.000E+00                      1.000E-01
   136    5.000E+00 5.000E+00                      1.000E-01
   137    5.000E+00 5.000E+00                      1.000E-01
   138    5.000E+00 5.000E+00                      1.000E-01
   139    5.000E+00 5.000E+00                      1.000E-01
   140    5.000E+00 5.000E+00                      1.000E-01
   141    5.000E+00 5.000E+00                      1.000E-01
   142    5.000E+00 5.000E+00                      1.000E-01
   143    5.000E+00 5.000E+00                      1.000E-01
   144    5.000E+00 5.000E+00                      1.000E-01
   145    5.000E+00 5.000E+00                      1.000E-01
   146    5.000E+00 5.000E+00                      1.000E-01
   147    5.000E+00 5.000E+00                      1.000E-01
   148    5.000E+00 5.000E+00                      1.000E-01
   149    5.000E+00 5.000E+00                      1.000E-01
   150    5.000E+00 5.000E+00                      1.000E-01
   151    5.000E+00 5.000E+00                      1.000E-01
   152    5.000E+00 5.000E+00                      1.000E-01
   153    5.000E+00 5.000E+00                      1.000E-01
   154    5.000E+00 5.000E+00                      1.000E-01
   155    5.000E+00 5.000E+00                      1.000E-01
   156    5.000E+00 5.000E+00                      1.000E-01
   157    5.000E+00 5.000E+00                      1.000E-01
   158    5.000E+00 5.000E+00                      1.000E-01
   159    5.000E+00 5.000E+00                      1.000E-01
   160    5.000E+00 5.000E+00                      1.000E-01



 
 SOLVING FOR HEAD 


 OUTER ITERATION SUMMARY
 -----------------------
 BT: Backtracking; LA: Linear Acceleration; UR: Under-relaxation

    Outer-Iteration  Inner-Iteration    Maximum Head Change  Maximum Head Change
        Number           Count               Value              Location
LA         1                8               0.26605                  3324           GWF-node number
LA         2                5               0.82406E-02              1094           GWF-node number
LA         3                2               0.26450E-03              1425           GWF-node number
LA         4                1               0.20683E-04              2796           GWF-node number


     4 CALLS TO SPARSE MATRIX SOLVER PACKAGE  IN FLOW TIME STEP   1 STRESS PERIOD  12

 TOTAL OF       4OUTER ITERATIONS
  MAXIMUM CHANGE FOR EACH ITERATION:
   MAX. CHANGE        NODE  MAX. CHANGE        NODE  MAX. CHANGE        NODE  MAX. CHANGE        NODE  MAX. CHANGE        NODE
 ------------------------------------------------------------------------------------------------------------------------------------
   0.26605    ,       3324  0.82406E-02,       1094  0.26450E-03,       1425  0.20683E-04,       2796

 OUTPUT CONTROL FOR STRESS PERIOD       12   TIME STEP        1
    SAVE HEAD FOR ALL LAYERS
    SAVE BUDGET
 UBDSV1U SAVING "         STORAGE" ON UNIT  50 AT TIME STEP      1, STRESS PERIOD     12
 UBDSV2U SAVING "   CONSTANT HEAD" ON UNIT  50 AT TIME STEP      1, STRESS PERIOD     12
 UBDSV1U SAVING "   FLOW JA FACE " ON UNIT  50 AT TIME STEP      1, STRESS PERIOD     12
 UBDSV4U SAVING "           WELLS" ON UNIT  50 AT TIME STEP      1, STRESS PERIOD     12
 UBDSV4U SAVING " HEAD DEP BOUNDS" ON UNIT  50 AT TIME STEP      1, STRESS PERIOD     12
 UBDSV3U SAVING "        RECHARGE" ON UNIT  50 AT TIME STEP      1, STRESS PERIOD     12
 UBDSV2U SAVING "  STREAM LEAKAGE" ON UNIT  50 AT TIME STEP      1, STRESS PERIOD     12




 HEAD WILL BE SAVED ON UNIT   51 AT END OF TIME STEP   1, STRESS PERIOD   12
1
  VOLUMETRIC BUDGET FOR ENTIRE MODEL AT END OF TIME STEP       1 IN STRESS PERIOD      12
  ---------------------------------------------------------------------------------------

     CUMULATIVE VOLUMES      L**3       RATES FOR THIS TIME STEP      L**3/T
     ------------------                 ------------------------

           IN:                                      IN:
           ---                                      ---
             STORAGE =      342724.0954               STORAGE =           0.0000
       CONSTANT HEAD =           0.0000         CONSTANT HEAD =           0.0000
               WELLS =           0.0000                 WELLS =           0.0000
     HEAD DEP BOUNDS =      123582.4744       HEAD DEP BOUNDS =         561.8075
            RECHARGE =      852961.6726              RECHARGE =        2890.7642
      STREAM LEAKAGE =       66104.1572        STREAM LEAKAGE =         624.4344

            TOTAL IN =     1385372.3996              TOTAL IN =        4077.0060

          OUT:                                     OUT:
          ----                                     ----
             STORAGE =      225398.4996               STORAGE =        1549.6183
       CONSTANT HEAD =           0.0000         CONSTANT HEAD =           0.0000
               WELLS =      839048.8387                 WELLS =        2185.8708
     HEAD DEP BOUNDS =      165201.4282       HEAD DEP BOUNDS =         241.2392
            RECHARGE =           0.0000              RECHARGE =           0.0000
      STREAM LEAKAGE =      155725.4309        STREAM LEAKAGE =         100.2685

           TOTAL OUT =     1385374.1974             TOTAL OUT =        4076.9968

            IN - OUT =          -1.7978              IN - OUT =       9.2644E-03

 PERCENT DISCREPANCY =          -0.00     PERCENT DISCREPANCY =           0.00






          TIME SUMMARY AT END OF TIME STEP         1 IN STRESS PERIOD        12
                    SECONDS     MINUTES      HOURS       DAYS        YEARS
                    -----------------------------------------------------------
   TIME STEP LENGTH 2.59200E+06  43200.      720.00      30.000     8.21355E-02
 STRESS PERIOD TIME 2.59200E+06  43200.      720.00      30.000     8.21355E-02
         TOTAL TIME 2.90304E+07 4.83840E+05  8064.0      336.00     0.91992    
1
1
                            STRESS PERIOD NO.   13, LENGTH =   31.00000    
                            -----------------------------------------------

                              NUMBER OF TIME STEPS =     1

                               MULTIPLIER FOR DELT =     1.000

                            INITIAL TIME STEP SIZE =   31.00000    

 WEL -- WELL PACKAGE, VERSION 7, 5/2/2005 INPUT READ FROM UNIT   20

 WELL NO.      NODE       STRESS FACTOR         
 -----------------------------------------------
      1        3324      -239.3    
      2        3409      -239.3    
      3        3737      -239.3    
      4        3971      -239.3    
      5        4092      -239.3    
      6        4297      -239.3    

      6 WELLS

 GHB -- GENERAL-HEAD BOUNDARY PACKAGE, VERSION 7, 5/2/2005
         INPUT READ FROM UNIT   30

 BOUND NO.     NODE         STAGE         CONDUCTANCE         
 -------------------------------------------------------------
      1        1473       33.50           70.00    
      2        1474       33.50           70.00    
      3        1475       33.50           70.00    
      4        1476       33.50           70.00    
      5        1477       33.50           70.00    
      6        1478       33.50           70.00    
      7        1479       33.50           70.00    
      8        1480       33.50           70.00    
      9        1481       33.50           70.00    
     10        1482       33.50           70.00    
     11        2972       33.50           70.00    
     12        2973       33.50           70.00    
     13        2974       33.50           70.00    
     14        2975       33.50           70.00    
     15        2976       33.50           70.00    
     16        2977       33.50           70.00    
     17        2978       33.50           70.00    
     18        2979       33.50           70.00    
     19        2980       33.50           70.00    
     20        2981       33.50           70.00    
     21        4471       33.50           70.00    
     22        4472       33.50           70.00    
     23        4473       33.50           70.00    
     24        4474       33.50           70.00    
     25        4475       33.50           70.00    
     26        4476       33.50           70.00    
     27        4477       33.50           70.00    
     28        4478       33.50           70.00    
     29        4479       33.50           70.00    
     30        4480       33.50           70.00    
     31        2999       35.50           70.00    
     32        3000       35.50           70.00    
     33        3001       35.50           70.00    
     34        3002       35.50           70.00    
     35        3003       35.50           70.00    
     36        3004       35.50           70.00    
     37        3005       35.50           70.00    
     38        3006       35.50           70.00    
     39        3007       35.50           70.00    
     40        3008       35.50           70.00    
     41        3009       35.50           70.00    
     42        3010       35.50           70.00    
     43        3011       35.50           70.00    
     44        3012       35.50           70.00    
     45        3013       35.50           70.00    
     46        3023       35.50           4.375    
     47        3027       35.50           17.50    
     48        3028       35.50           70.00    
     49        3029       35.50           70.00    
     50        3030       35.50           70.00    

     50 GHB CELLS

 RCH -- RECHARGE PACKAGE, VERSION 7, 5/2/2005 INPUT READ FROM UNIT   31



                           RECHARGE
 READING ON UNIT   31 WITH FORMAT: (1499E15.6)         



 CLASSIFICATION & COUNT OF STREAM SEGMENTS BASED ON SOURCE OF INFLOW:

                HEADWATER     DIVERSION     RECEIVES TRIBUTARY FLOW
                ---------     ---------     -----------------------
                     1              0             159



                    INPUT DATA FOR EACH STREAM SEGMENT
 ---------------------------------------------------------------------------------------------

 SEGMENT    SEG.     INFLOW   OVERLAND   STREAM    STREAM   ICALC  OUTFLOW  DIVERSION PRIORITY
    NO.    LENGTH     RATE     RUNOFF      ET       PPT.    METH.  TO SEG.  FROM SEG.    NO.

      1  6.250E+01 1.432E+04 0.000E+00 0.000E+00 0.000E+00    1        2        0        0
      2  6.250E+01 0.000E+00 0.000E+00 0.000E+00 0.000E+00    1        3        0        0
      3  6.250E+01 0.000E+00 0.000E+00 0.000E+00 0.000E+00    1        4        0        0
      4  6.250E+01 0.000E+00 0.000E+00 0.000E+00 0.000E+00    1        5        0        0
      5  6.250E+01 0.000E+00 0.000E+00 0.000E+00 0.000E+00    1        6        0        0
      6  6.250E+01 0.000E+00 0.000E+00 0.000E+00 0.000E+00    1        7        0        0
      7  6.250E+01 0.000E+00 0.000E+00 0.000E+00 0.000E+00    1        8        0        0
      8  6.250E+01 0.000E+00 0.000E+00 0.000E+00 0.000E+00    1        9        0        0
      9  6.250E+01 0.000E+00 0.000E+00 0.000E+00 0.000E+00    1       10        0        0
     10  6.250E+01 0.000E+00 0.000E+00 0.000E+00 0.000E+00    1       11        0        0
     11  6.250E+01 0.000E+00 0.000E+00 0.000E+00 0.000E+00    1       12        0        0
     12  6.250E+01 0.000E+00 0.000E+00 0.000E+00 0.000E+00    1       13        0        0
     13  6.250E+01 0.000E+00 0.000E+00 0.000E+00 0.000E+00    1       14        0        0
     14  6.250E+01 0.000E+00 0.000E+00 0.000E+00 0.000E+00    1       15        0        0
     15  6.250E+01 0.000E+00 0.000E+00 0.000E+00 0.000E+00    1       16        0        0
     16  6.250E+01 0.000E+00 0.000E+00 0.000E+00 0.000E+00    1       17        0        0
     17  6.250E+01 0.000E+00 0.000E+00 0.000E+00 0.000E+00    1       18        0        0
     18  6.250E+01 0.000E+00 0.000E+00 0.000E+00 0.000E+00    1       19        0        0
     19  6.250E+01 0.000E+00 0.000E+00 0.000E+00 0.000E+00    1       20        0        0
     20  6.250E+01 0.000E+00 0.000E+00 0.000E+00 0.000E+00    1       21        0        0
     21  6.250E+01 0.000E+00 0.000E+00 0.000E+00 0.000E+00    1       22        0        0
     22  6.250E+01 0.000E+00 0.000E+00 0.000E+00 0.000E+00    1       23        0        0
     23  6.250E+01 0.000E+00 0.000E+00 0.000E+00 0.000E+00    1       24        0        0
     24  6.250E+01 0.000E+00 0.000E+00 0.000E+00 0.000E+00    1       25        0        0
     25  6.250E+01 0.000E+00 0.000E+00 0.000E+00 0.000E+00    1       26        0        0
     26  6.250E+01 0.000E+00 0.000E+00 0.000E+00 0.000E+00    1       27        0        0
     27  6.250E+01 0.000E+00 0.000E+00 0.000E+00 0.000E+00    1       28        0        0
     28  6.250E+01 0.000E+00 0.000E+00 0.000E+00 0.000E+00    1       29        0        0
     29  6.250E+01 0.000E+00 0.000E+00 0.000E+00 0.000E+00    1       30        0        0
     30  6.250E+01 0.000E+00 0.000E+00 0.000E+00 0.000E+00    1       31        0        0
     31  6.250E+01 0.000E+00 0.000E+00 0.000E+00 0.000E+00    1       32        0        0
     32  6.250E+01 0.000E+00 0.000E+00 0.000E+00 0.000E+00    1       33        0        0
     33  6.250E+01 0.000E+00 0.000E+00 0.000E+00 0.000E+00    1       34        0        0
     34  6.250E+01 0.000E+00 0.000E+00 0.000E+00 0.000E+00    1       35        0        0
     35  6.250E+01 0.000E+00 0.000E+00 0.000E+00 0.000E+00    1       36        0        0
     36  6.250E+01 0.000E+00 0.000E+00 0.000E+00 0.000E+00    1       37        0        0
     37  6.250E+01 0.000E+00 0.000E+00 0.000E+00 0.000E+00    1       38        0        0
     38  6.250E+01 0.000E+00 0.000E+00 0.000E+00 0.000E+00    1       39        0        0
     39  6.250E+01 0.000E+00 0.000E+00 0.000E+00 0.000E+00    1       40        0        0
     40  6.250E+01 0.000E+00 0.000E+00 0.000E+00 0.000E+00    1       41        0        0
     41  6.250E+01 0.000E+00 0.000E+00 0.000E+00 0.000E+00    1       42        0        0
     42  6.250E+01 0.000E+00 0.000E+00 0.000E+00 0.000E+00    1       43        0        0
     43  6.250E+01 0.000E+00 0.000E+00 0.000E+00 0.000E+00    1       44        0        0
     44  6.250E+01 0.000E+00 0.000E+00 0.000E+00 0.000E+00    1       45        0        0
     45  6.250E+01 0.000E+00 0.000E+00 0.000E+00 0.000E+00    1       46        0        0
     46  6.250E+01 0.000E+00 0.000E+00 0.000E+00 0.000E+00    1       47        0        0
     47  6.250E+01 0.000E+00 0.000E+00 0.000E+00 0.000E+00    1       48        0        0
     48  6.250E+01 0.000E+00 0.000E+00 0.000E+00 0.000E+00    1       49        0        0
     49  6.250E+01 0.000E+00 0.000E+00 0.000E+00 0.000E+00    1       50        0        0
     50  6.250E+01 0.000E+00 0.000E+00 0.000E+00 0.000E+00    1       51        0        0
     51  6.250E+01 0.000E+00 0.000E+00 0.000E+00 0.000E+00    1       52        0        0
     52  6.250E+01 0.000E+00 0.000E+00 0.000E+00 0.000E+00    1       53        0        0
     53  6.250E+01 0.000E+00 0.000E+00 0.000E+00 0.000E+00    1       54        0        0
     54  6.250E+01 0.000E+00 0.000E+00 0.000E+00 0.000E+00    1       55        0        0
     55  6.250E+01 0.000E+00 0.000E+00 0.000E+00 0.000E+00    1       56        0        0
     56  6.250E+01 0.000E+00 0.000E+00 0.000E+00 0.000E+00    1       57        0        0
     57  6.250E+01 0.000E+00 0.000E+00 0.000E+00 0.000E+00    1       58        0        0
     58  6.250E+01 0.000E+00 0.000E+00 0.000E+00 0.000E+00    1       59        0        0
     59  6.250E+01 0.000E+00 0.000E+00 0.000E+00 0.000E+00    1       60        0        0
     60  6.250E+01 0.000E+00 0.000E+00 0.000E+00 0.000E+00    1       61        0        0
     61  6.250E+01 0.000E+00 0.000E+00 0.000E+00 0.000E+00    1       62        0        0
     62  6.250E+01 0.000E+00 0.000E+00 0.000E+00 0.000E+00    1       63        0        0
     63  6.250E+01 0.000E+00 0.000E+00 0.000E+00 0.000E+00    1       64        0        0
     64  6.250E+01 0.000E+00 0.000E+00 0.000E+00 0.000E+00    1       65        0        0
     65  6.250E+01 0.000E+00 0.000E+00 0.000E+00 0.000E+00    1       66        0        0
     66  6.250E+01 0.000E+00 0.000E+00 0.000E+00 0.000E+00    1       67        0        0
     67  6.250E+01 0.000E+00 0.000E+00 0.000E+00 0.000E+00    1       68        0        0
     68  6.250E+01 0.000E+00 0.000E+00 0.000E+00 0.000E+00    1       69        0        0
     69  6.250E+01 0.000E+00 0.000E+00 0.000E+00 0.000E+00    1       70        0        0
     70  6.250E+01 0.000E+00 0.000E+00 0.000E+00 0.000E+00    1       71        0        0
     71  6.250E+01 0.000E+00 0.000E+00 0.000E+00 0.000E+00    1       72        0        0
     72  6.250E+01 0.000E+00 0.000E+00 0.000E+00 0.000E+00    1       73        0        0
     73  6.250E+01 0.000E+00 0.000E+00 0.000E+00 0.000E+00    1       74        0        0
     74  6.250E+01 0.000E+00 0.000E+00 0.000E+00 0.000E+00    1       75        0        0
     75  6.250E+01 0.000E+00 0.000E+00 0.000E+00 0.000E+00    1       76        0        0
     76  6.250E+01 0.000E+00 0.000E+00 0.000E+00 0.000E+00    1       77        0        0
     77  6.250E+01 0.000E+00 0.000E+00 0.000E+00 0.000E+00    1       78        0        0
     78  6.250E+01 0.000E+00 0.000E+00 0.000E+00 0.000E+00    1       79        0        0
     79  6.250E+01 0.000E+00 0.000E+00 0.000E+00 0.000E+00    1       80        0        0
     80  6.250E+01 0.000E+00 0.000E+00 0.000E+00 0.000E+00    1       81        0        0
     81  6.250E+01 0.000E+00 0.000E+00 0.000E+00 0.000E+00    1       82        0        0
     82  6.250E+01 0.000E+00 0.000E+00 0.000E+00 0.000E+00    1       83        0        0
     83  6.250E+01 0.000E+00 0.000E+00 0.000E+00 0.000E+00    1       84        0        0
     84  6.250E+01 0.000E+00 0.000E+00 0.000E+00 0.000E+00    1       85        0        0
     85  6.250E+01 0.000E+00 0.000E+00 0.000E+00 0.000E+00    1       86        0        0
     86  6.250E+01 0.000E+00 0.000E+00 0.000E+00 0.000E+00    1       87        0        0
     87  6.250E+01 0.000E+00 0.000E+00 0.000E+00 0.000E+00    1       88        0        0
     88  6.250E+01 0.000E+00 0.000E+00 0.000E+00 0.000E+00    1       89        0        0
     89  6.250E+01 0.000E+00 0.000E+00 0.000E+00 0.000E+00    1       90        0        0
     90  6.250E+01 0.000E+00 0.000E+00 0.000E+00 0.000E+00    1       91        0        0
     91  6.250E+01 0.000E+00 0.000E+00 0.000E+00 0.000E+00    1       92        0        0
     92  6.250E+01 0.000E+00 0.000E+00 0.000E+00 0.000E+00    1       93        0        0
     93  6.250E+01 0.000E+00 0.000E+00 0.000E+00 0.000E+00    1       94        0        0
     94  6.250E+01 0.000E+00 0.000E+00 0.000E+00 0.000E+00    1       95        0        0
     95  6.250E+01 0.000E+00 0.000E+00 0.000E+00 0.000E+00    1       96        0        0
     96  6.250E+01 0.000E+00 0.000E+00 0.000E+00 0.000E+00    1       97        0        0
     97  6.250E+01 0.000E+00 0.000E+00 0.000E+00 0.000E+00    1       98        0        0
     98  6.250E+01 0.000E+00 0.000E+00 0.000E+00 0.000E+00    1       99        0        0
     99  6.250E+01 0.000E+00 0.000E+00 0.000E+00 0.000E+00    1      100        0        0
    100  6.250E+01 0.000E+00 0.000E+00 0.000E+00 0.000E+00    1      101        0        0
    101  6.250E+01 0.000E+00 0.000E+00 0.000E+00 0.000E+00    1      102        0        0
    102  6.250E+01 0.000E+00 0.000E+00 0.000E+00 0.000E+00    1      103        0        0
    103  6.250E+01 0.000E+00 0.000E+00 0.000E+00 0.000E+00    1      104        0        0
    104  6.250E+01 0.000E+00 0.000E+00 0.000E+00 0.000E+00    1      105        0        0
    105  6.250E+01 0.000E+00 0.000E+00 0.000E+00 0.000E+00    1      106        0        0
    106  6.250E+01 0.000E+00 0.000E+00 0.000E+00 0.000E+00    1      107        0        0
    107  6.250E+01 0.000E+00 0.000E+00 0.000E+00 0.000E+00    1      108        0        0
    108  6.250E+01 0.000E+00 0.000E+00 0.000E+00 0.000E+00    1      109        0        0
    109  6.250E+01 0.000E+00 0.000E+00 0.000E+00 0.000E+00    1      110        0        0
    110  6.250E+01 0.000E+00 0.000E+00 0.000E+00 0.000E+00    1      111        0        0
    111  6.250E+01 0.000E+00 0.000E+00 0.000E+00 0.000E+00    1      112        0        0
    112  6.250E+01 0.000E+00 0.000E+00 0.000E+00 0.000E+00    1      113        0        0
    113  6.250E+01 0.000E+00 0.000E+00 0.000E+00 0.000E+00    1      114        0        0
    114  6.250E+01 0.000E+00 0.000E+00 0.000E+00 0.000E+00    1      115        0        0
    115  6.250E+01 0.000E+00 0.000E+00 0.000E+00 0.000E+00    1      116        0        0
    116  6.250E+01 0.000E+00 0.000E+00 0.000E+00 0.000E+00    1      117        0        0
    117  6.250E+01 0.000E+00 0.000E+00 0.000E+00 0.000E+00    1      118        0        0
    118  6.250E+01 0.000E+00 0.000E+00 0.000E+00 0.000E+00    1      119        0        0
    119  6.250E+01 0.000E+00 0.000E+00 0.000E+00 0.000E+00    1      120        0        0
    120  6.250E+01 0.000E+00 0.000E+00 0.000E+00 0.000E+00    1      121        0        0
    121  6.250E+01 0.000E+00 0.000E+00 0.000E+00 0.000E+00    1      122        0        0
    122  6.250E+01 0.000E+00 0.000E+00 0.000E+00 0.000E+00    1      123        0        0
    123  6.250E+01 0.000E+00 0.000E+00 0.000E+00 0.000E+00    1      124        0        0
    124  6.250E+01 0.000E+00 0.000E+00 0.000E+00 0.000E+00    1      125        0        0
    125  6.250E+01 0.000E+00 0.000E+00 0.000E+00 0.000E+00    1      126        0        0
    126  6.250E+01 0.000E+00 0.000E+00 0.000E+00 0.000E+00    1      127        0        0
    127  6.250E+01 0.000E+00 0.000E+00 0.000E+00 0.000E+00    1      128        0        0
    128  6.250E+01 0.000E+00 0.000E+00 0.000E+00 0.000E+00    1      129        0        0
    129  6.250E+01 0.000E+00 0.000E+00 0.000E+00 0.000E+00    1      130        0        0
    130  6.250E+01 0.000E+00 0.000E+00 0.000E+00 0.000E+00    1      131        0        0
    131  6.250E+01 0.000E+00 0.000E+00 0.000E+00 0.000E+00    1      132        0        0
    132  6.250E+01 0.000E+00 0.000E+00 0.000E+00 0.000E+00    1      133        0        0
    133  6.250E+01 0.000E+00 0.000E+00 0.000E+00 0.000E+00    1      134        0        0
    134  6.250E+01 0.000E+00 0.000E+00 0.000E+00 0.000E+00    1      135        0        0
    135  6.250E+01 0.000E+00 0.000E+00 0.000E+00 0.000E+00    1      136        0        0
    136  6.250E+01 0.000E+00 0.000E+00 0.000E+00 0.000E+00    1      137        0        0
    137  6.250E+01 0.000E+00 0.000E+00 0.000E+00 0.000E+00    1      138        0        0
    138  6.250E+01 0.000E+00 0.000E+00 0.000E+00 0.000E+00    1      139        0        0
    139  6.250E+01 0.000E+00 0.000E+00 0.000E+00 0.000E+00    1      140        0        0
    140  6.250E+01 0.000E+00 0.000E+00 0.000E+00 0.000E+00    1      141        0        0
    141  6.250E+01 0.000E+00 0.000E+00 0.000E+00 0.000E+00    1      142        0        0
    142  6.250E+01 0.000E+00 0.000E+00 0.000E+00 0.000E+00    1      143        0        0
    143  6.250E+01 0.000E+00 0.000E+00 0.000E+00 0.000E+00    1      144        0        0
    144  6.250E+01 0.000E+00 0.000E+00 0.000E+00 0.000E+00    1      145        0        0
    145  6.250E+01 0.000E+00 0.000E+00 0.000E+00 0.000E+00    1      146        0        0
    146  6.250E+01 0.000E+00 0.000E+00 0.000E+00 0.000E+00    1      147        0        0
    147  6.250E+01 0.000E+00 0.000E+00 0.000E+00 0.000E+00    1      148        0        0
    148  6.250E+01 0.000E+00 0.000E+00 0.000E+00 0.000E+00    1      149        0        0
    149  6.250E+01 0.000E+00 0.000E+00 0.000E+00 0.000E+00    1      150        0        0
    150  6.250E+01 0.000E+00 0.000E+00 0.000E+00 0.000E+00    1      151        0        0
    151  6.250E+01 0.000E+00 0.000E+00 0.000E+00 0.000E+00    1      152        0        0
    152  6.250E+01 0.000E+00 0.000E+00 0.000E+00 0.000E+00    1      153        0        0
    153  6.250E+01 0.000E+00 0.000E+00 0.000E+00 0.000E+00    1      154        0        0
    154  6.250E+01 0.000E+00 0.000E+00 0.000E+00 0.000E+00    1      155        0        0
    155  6.250E+01 0.000E+00 0.000E+00 0.000E+00 0.000E+00    1      156        0        0
    156  6.250E+01 0.000E+00 0.000E+00 0.000E+00 0.000E+00    1      157        0        0
    157  6.250E+01 0.000E+00 0.000E+00 0.000E+00 0.000E+00    1      158        0        0
    158  6.250E+01 0.000E+00 0.000E+00 0.000E+00 0.000E+00    1      159        0        0
    159  6.250E+01 0.000E+00 0.000E+00 0.000E+00 0.000E+00    1      160        0        0
    160  6.250E+01 0.000E+00 0.000E+00 0.000E+00 0.000E+00    1      161        0        0


         STREAMBED PROPERTIES AND STREAM DIMENSIONS

 SEGMENT     WIDTH OF STREAM     DEPTH OF STREAM    STREAM ROUGHNESS
    No.     UPPER     LOWER     UPPER     LOWER     CHANNEL      BANK

     1    5.000E+00 5.000E+00                      1.000E-01
     2    5.000E+00 5.000E+00                      1.000E-01
     3    5.000E+00 5.000E+00                      1.000E-01
     4    5.000E+00 5.000E+00                      1.000E-01
     5    5.000E+00 5.000E+00                      1.000E-01
     6    5.000E+00 5.000E+00                      1.000E-01
     7    5.000E+00 5.000E+00                      1.000E-01
     8    5.000E+00 5.000E+00                      1.000E-01
     9    5.000E+00 5.000E+00                      1.000E-01
    10    5.000E+00 5.000E+00                      1.000E-01
    11    5.000E+00 5.000E+00                      1.000E-01
    12    5.000E+00 5.000E+00                      1.000E-01
    13    5.000E+00 5.000E+00                      1.000E-01
    14    5.000E+00 5.000E+00                      1.000E-01
    15    5.000E+00 5.000E+00                      1.000E-01
    16    5.000E+00 5.000E+00                      1.000E-01
    17    5.000E+00 5.000E+00                      1.000E-01
    18    5.000E+00 5.000E+00                      1.000E-01
    19    5.000E+00 5.000E+00                      1.000E-01
    20    5.000E+00 5.000E+00                      1.000E-01
    21    5.000E+00 5.000E+00                      1.000E-01
    22    5.000E+00 5.000E+00                      1.000E-01
    23    5.000E+00 5.000E+00                      1.000E-01
    24    5.000E+00 5.000E+00                      1.000E-01
    25    5.000E+00 5.000E+00                      1.000E-01
    26    5.000E+00 5.000E+00                      1.000E-01
    27    5.000E+00 5.000E+00                      1.000E-01
    28    5.000E+00 5.000E+00                      1.000E-01
    29    5.000E+00 5.000E+00                      1.000E-01
    30    5.000E+00 5.000E+00                      1.000E-01
    31    5.000E+00 5.000E+00                      1.000E-01
    32    5.000E+00 5.000E+00                      1.000E-01
    33    5.000E+00 5.000E+00                      1.000E-01
    34    5.000E+00 5.000E+00                      1.000E-01
    35    5.000E+00 5.000E+00                      1.000E-01
    36    5.000E+00 5.000E+00                      1.000E-01
    37    5.000E+00 5.000E+00                      1.000E-01
    38    5.000E+00 5.000E+00                      1.000E-01
    39    5.000E+00 5.000E+00                      1.000E-01
    40    5.000E+00 5.000E+00                      1.000E-01
    41    5.000E+00 5.000E+00                      1.000E-01
    42    5.000E+00 5.000E+00                      1.000E-01
    43    5.000E+00 5.000E+00                      1.000E-01
    44    5.000E+00 5.000E+00                      1.000E-01
    45    5.000E+00 5.000E+00                      1.000E-01
    46    5.000E+00 5.000E+00                      1.000E-01
    47    5.000E+00 5.000E+00                      1.000E-01
    48    5.000E+00 5.000E+00                      1.000E-01
    49    5.000E+00 5.000E+00                      1.000E-01
    50    5.000E+00 5.000E+00                      1.000E-01
    51    5.000E+00 5.000E+00                      1.000E-01
    52    5.000E+00 5.000E+00                      1.000E-01
    53    5.000E+00 5.000E+00                      1.000E-01
    54    5.000E+00 5.000E+00                      1.000E-01
    55    5.000E+00 5.000E+00                      1.000E-01
    56    5.000E+00 5.000E+00                      1.000E-01
    57    5.000E+00 5.000E+00                      1.000E-01
    58    5.000E+00 5.000E+00                      1.000E-01
    59    5.000E+00 5.000E+00                      1.000E-01
    60    5.000E+00 5.000E+00                      1.000E-01
    61    5.000E+00 5.000E+00                      1.000E-01
    62    5.000E+00 5.000E+00                      1.000E-01
    63    5.000E+00 5.000E+00                      1.000E-01
    64    5.000E+00 5.000E+00                      1.000E-01
    65    5.000E+00 5.000E+00                      1.000E-01
    66    5.000E+00 5.000E+00                      1.000E-01
    67    5.000E+00 5.000E+00                      1.000E-01
    68    5.000E+00 5.000E+00                      1.000E-01
    69    5.000E+00 5.000E+00                      1.000E-01
    70    5.000E+00 5.000E+00                      1.000E-01
    71    5.000E+00 5.000E+00                      1.000E-01
    72    5.000E+00 5.000E+00                      1.000E-01
    73    5.000E+00 5.000E+00                      1.000E-01
    74    5.000E+00 5.000E+00                      1.000E-01
    75    5.000E+00 5.000E+00                      1.000E-01
    76    5.000E+00 5.000E+00                      1.000E-01
    77    5.000E+00 5.000E+00                      1.000E-01
    78    5.000E+00 5.000E+00                      1.000E-01
    79    5.000E+00 5.000E+00                      1.000E-01
    80    5.000E+00 5.000E+00                      1.000E-01
    81    5.000E+00 5.000E+00                      1.000E-01
    82    5.000E+00 5.000E+00                      1.000E-01
    83    5.000E+00 5.000E+00                      1.000E-01
    84    5.000E+00 5.000E+00                      1.000E-01
    85    5.000E+00 5.000E+00                      1.000E-01
    86    5.000E+00 5.000E+00                      1.000E-01
    87    5.000E+00 5.000E+00                      1.000E-01
    88    5.000E+00 5.000E+00                      1.000E-01
    89    5.000E+00 5.000E+00                      1.000E-01
    90    5.000E+00 5.000E+00                      1.000E-01
    91    5.000E+00 5.000E+00                      1.000E-01
    92    5.000E+00 5.000E+00                      1.000E-01
    93    5.000E+00 5.000E+00                      1.000E-01
    94    5.000E+00 5.000E+00                      1.000E-01
    95    5.000E+00 5.000E+00                      1.000E-01
    96    5.000E+00 5.000E+00                      1.000E-01
    97    5.000E+00 5.000E+00                      1.000E-01
    98    5.000E+00 5.000E+00                      1.000E-01
    99    5.000E+00 5.000E+00                      1.000E-01
   100    5.000E+00 5.000E+00                      1.000E-01
   101    5.000E+00 5.000E+00                      1.000E-01
   102    5.000E+00 5.000E+00                      1.000E-01
   103    5.000E+00 5.000E+00                      1.000E-01
   104    5.000E+00 5.000E+00                      1.000E-01
   105    5.000E+00 5.000E+00                      1.000E-01
   106    5.000E+00 5.000E+00                      1.000E-01
   107    5.000E+00 5.000E+00                      1.000E-01
   108    5.000E+00 5.000E+00                      1.000E-01
   109    5.000E+00 5.000E+00                      1.000E-01
   110    5.000E+00 5.000E+00                      1.000E-01
   111    5.000E+00 5.000E+00                      1.000E-01
   112    5.000E+00 5.000E+00                      1.000E-01
   113    5.000E+00 5.000E+00                      1.000E-01
   114    5.000E+00 5.000E+00                      1.000E-01
   115    5.000E+00 5.000E+00                      1.000E-01
   116    5.000E+00 5.000E+00                      1.000E-01
   117    5.000E+00 5.000E+00                      1.000E-01
   118    5.000E+00 5.000E+00                      1.000E-01
   119    5.000E+00 5.000E+00                      1.000E-01
   120    5.000E+00 5.000E+00                      1.000E-01
   121    5.000E+00 5.000E+00                      1.000E-01
   122    5.000E+00 5.000E+00                      1.000E-01
   123    5.000E+00 5.000E+00                      1.000E-01
   124    5.000E+00 5.000E+00                      1.000E-01
   125    5.000E+00 5.000E+00                      1.000E-01
   126    5.000E+00 5.000E+00                      1.000E-01
   127    5.000E+00 5.000E+00                      1.000E-01
   128    5.000E+00 5.000E+00                      1.000E-01
   129    5.000E+00 5.000E+00                      1.000E-01
   130    5.000E+00 5.000E+00                      1.000E-01
   131    5.000E+00 5.000E+00                      1.000E-01
   132    5.000E+00 5.000E+00                      1.000E-01
   133    5.000E+00 5.000E+00                      1.000E-01
   134    5.000E+00 5.000E+00                      1.000E-01
   135    5.000E+00 5.000E+00                      1.000E-01
   136    5.000E+00 5.000E+00                      1.000E-01
   137    5.000E+00 5.000E+00                      1.000E-01
   138    5.000E+00 5.000E+00                      1.000E-01
   139    5.000E+00 5.000E+00                      1.000E-01
   140    5.000E+00 5.000E+00                      1.000E-01
   141    5.000E+00 5.000E+00                      1.000E-01
   142    5.000E+00 5.000E+00                      1.000E-01
   143    5.000E+00 5.000E+00                      1.000E-01
   144    5.000E+00 5.000E+00                      1.000E-01
   145    5.000E+00 5.000E+00                      1.000E-01
   146    5.000E+00 5.000E+00                      1.000E-01
   147    5.000E+00 5.000E+00                      1.000E-01
   148    5.000E+00 5.000E+00                      1.000E-01
   149    5.000E+00 5.000E+00                      1.000E-01
   150    5.000E+00 5.000E+00                      1.000E-01
   151    5.000E+00 5.000E+00                      1.000E-01
   152    5.000E+00 5.000E+00                      1.000E-01
   153    5.000E+00 5.000E+00                      1.000E-01
   154    5.000E+00 5.000E+00                      1.000E-01
   155    5.000E+00 5.000E+00                      1.000E-01
   156    5.000E+00 5.000E+00                      1.000E-01
   157    5.000E+00 5.000E+00                      1.000E-01
   158    5.000E+00 5.000E+00                      1.000E-01
   159    5.000E+00 5.000E+00                      1.000E-01
   160    5.000E+00 5.000E+00                      1.000E-01



 
 SOLVING FOR HEAD 


 OUTER ITERATION SUMMARY
 -----------------------
 BT: Backtracking; LA: Linear Acceleration; UR: Under-relaxation

    Outer-Iteration  Inner-Iteration    Maximum Head Change  Maximum Head Change
        Number           Count               Value              Location
LA         1                8               0.33780                  4092           GWF-node number
LA         2                4               0.82337E-02              1388           GWF-node number
LA         3                3               0.31723E-03              1393           GWF-node number
LA         4                1               0.16963E-04              3753           GWF-node number


     4 CALLS TO SPARSE MATRIX SOLVER PACKAGE  IN FLOW TIME STEP   1 STRESS PERIOD  13

 TOTAL OF       4OUTER ITERATIONS
  MAXIMUM CHANGE FOR EACH ITERATION:
   MAX. CHANGE        NODE  MAX. CHANGE        NODE  MAX. CHANGE        NODE  MAX. CHANGE        NODE  MAX. CHANGE        NODE
 ------------------------------------------------------------------------------------------------------------------------------------
   0.33780    ,       4092  0.82337E-02,       1388  0.31723E-03,       1393  0.16963E-04,       3753

 OUTPUT CONTROL FOR STRESS PERIOD       13   TIME STEP        1
    SAVE HEAD FOR ALL LAYERS
    SAVE BUDGET
 UBDSV1U SAVING "         STORAGE" ON UNIT  50 AT TIME STEP      1, STRESS PERIOD     13
 UBDSV2U SAVING "   CONSTANT HEAD" ON UNIT  50 AT TIME STEP      1, STRESS PERIOD     13
 UBDSV1U SAVING "   FLOW JA FACE " ON UNIT  50 AT TIME STEP      1, STRESS PERIOD     13
 UBDSV4U SAVING "           WELLS" ON UNIT  50 AT TIME STEP      1, STRESS PERIOD     13
 UBDSV4U SAVING " HEAD DEP BOUNDS" ON UNIT  50 AT TIME STEP      1, STRESS PERIOD     13
 UBDSV3U SAVING "        RECHARGE" ON UNIT  50 AT TIME STEP      1, STRESS PERIOD     13
 UBDSV2U SAVING "  STREAM LEAKAGE" ON UNIT  50 AT TIME STEP      1, STRESS PERIOD     13




 HEAD WILL BE SAVED ON UNIT   51 AT END OF TIME STEP   1, STRESS PERIOD   13
1
  VOLUMETRIC BUDGET FOR ENTIRE MODEL AT END OF TIME STEP       1 IN STRESS PERIOD      13
  ---------------------------------------------------------------------------------------

     CUMULATIVE VOLUMES      L**3       RATES FOR THIS TIME STEP      L**3/T
     ------------------                 ------------------------

           IN:                                      IN:
           ---                                      ---
             STORAGE =      342724.0954               STORAGE =           0.0000
       CONSTANT HEAD =           0.0000         CONSTANT HEAD =           0.0000
               WELLS =           0.0000                 WELLS =           0.0000
     HEAD DEP BOUNDS =      137122.6127       HEAD DEP BOUNDS =         436.7787
            RECHARGE =      967875.6226              RECHARGE =        3706.9016
      STREAM LEAKAGE =       77796.2545        STREAM LEAKAGE =         377.1644

            TOTAL IN =     1525518.5851              TOTAL IN =        4520.8447

          OUT:                                     OUT:
          ----                                     ----
             STORAGE =      303607.6687               STORAGE =        2522.8764
       CONSTANT HEAD =           0.0000         CONSTANT HEAD =           0.0000
               WELLS =      883566.2682                 WELLS =        1436.0461
     HEAD DEP BOUNDS =      178239.8448       HEAD DEP BOUNDS =         420.5941
            RECHARGE =           0.0000              RECHARGE =           0.0000
      STREAM LEAKAGE =      160106.4415        STREAM LEAKAGE =         141.3229

           TOTAL OUT =     1525520.2231             TOTAL OUT =        4520.8396

            IN - OUT =          -1.6379              IN - OUT =       5.1263E-03

 PERCENT DISCREPANCY =          -0.00     PERCENT DISCREPANCY =           0.00






          TIME SUMMARY AT END OF TIME STEP         1 IN STRESS PERIOD        13
                    SECONDS     MINUTES      HOURS       DAYS        YEARS
                    -----------------------------------------------------------
   TIME STEP LENGTH 2.67840E+06  44640.      744.00      31.000     8.48734E-02
 STRESS PERIOD TIME 2.67840E+06  44640.      744.00      31.000     8.48734E-02
         TOTAL TIME 3.17088E+07 5.28480E+05  8808.0      367.00      1.0048    
1
1
                            STRESS PERIOD NO.   14, LENGTH =   31.00000    
                            -----------------------------------------------

                              NUMBER OF TIME STEPS =     1

                               MULTIPLIER FOR DELT =     1.000

                            INITIAL TIME STEP SIZE =   31.00000    

 WEL -- WELL PACKAGE, VERSION 7, 5/2/2005 INPUT READ FROM UNIT   20

 WELL NO.      NODE       STRESS FACTOR         
 -----------------------------------------------
      1        3324      -153.9    
      2        3409      -153.9    
      3        3737      -153.9    
      4        3971      -153.9    
      5        4092      -153.9    
      6        4297      -153.9    

      6 WELLS

 GHB -- GENERAL-HEAD BOUNDARY PACKAGE, VERSION 7, 5/2/2005
         INPUT READ FROM UNIT   30

 BOUND NO.     NODE         STAGE         CONDUCTANCE         
 -------------------------------------------------------------
      1        1473       33.50           70.00    
      2        1474       33.50           70.00    
      3        1475       33.50           70.00    
      4        1476       33.50           70.00    
      5        1477       33.50           70.00    
      6        1478       33.50           70.00    
      7        1479       33.50           70.00    
      8        1480       33.50           70.00    
      9        1481       33.50           70.00    
     10        1482       33.50           70.00    
     11        2972       33.50           70.00    
     12        2973       33.50           70.00    
     13        2974       33.50           70.00    
     14        2975       33.50           70.00    
     15        2976       33.50           70.00    
     16        2977       33.50           70.00    
     17        2978       33.50           70.00    
     18        2979       33.50           70.00    
     19        2980       33.50           70.00    
     20        2981       33.50           70.00    
     21        4471       33.50           70.00    
     22        4472       33.50           70.00    
     23        4473       33.50           70.00    
     24        4474       33.50           70.00    
     25        4475       33.50           70.00    
     26        4476       33.50           70.00    
     27        4477       33.50           70.00    
     28        4478       33.50           70.00    
     29        4479       33.50           70.00    
     30        4480       33.50           70.00    
     31        2999       35.50           70.00    
     32        3000       35.50           70.00    
     33        3001       35.50           70.00    
     34        3002       35.50           70.00    
     35        3003       35.50           70.00    
     36        3004       35.50           70.00    
     37        3005       35.50           70.00    
     38        3006       35.50           70.00    
     39        3007       35.50           70.00    
     40        3008       35.50           70.00    
     41        3009       35.50           70.00    
     42        3010       35.50           70.00    
     43        3011       35.50           70.00    
     44        3012       35.50           70.00    
     45        3013       35.50           70.00    
     46        3023       35.50           4.375    
     47        3027       35.50           17.50    
     48        3028       35.50           70.00    
     49        3029       35.50           70.00    
     50        3030       35.50           70.00    

     50 GHB CELLS

 RCH -- RECHARGE PACKAGE, VERSION 7, 5/2/2005 INPUT READ FROM UNIT   31



                           RECHARGE
 READING ON UNIT   31 WITH FORMAT: (1499E15.6)         



 CLASSIFICATION & COUNT OF STREAM SEGMENTS BASED ON SOURCE OF INFLOW:

                HEADWATER     DIVERSION     RECEIVES TRIBUTARY FLOW
                ---------     ---------     -----------------------
                     1              0             159



                    INPUT DATA FOR EACH STREAM SEGMENT
 ---------------------------------------------------------------------------------------------

 SEGMENT    SEG.     INFLOW   OVERLAND   STREAM    STREAM   ICALC  OUTFLOW  DIVERSION PRIORITY
    NO.    LENGTH     RATE     RUNOFF      ET       PPT.    METH.  TO SEG.  FROM SEG.    NO.

      1  6.250E+01 1.621E+04 0.000E+00 0.000E+00 0.000E+00    1        2        0        0
      2  6.250E+01 0.000E+00 0.000E+00 0.000E+00 0.000E+00    1        3        0        0
      3  6.250E+01 0.000E+00 0.000E+00 0.000E+00 0.000E+00    1        4        0        0
      4  6.250E+01 0.000E+00 0.000E+00 0.000E+00 0.000E+00    1        5        0        0
      5  6.250E+01 0.000E+00 0.000E+00 0.000E+00 0.000E+00    1        6        0        0
      6  6.250E+01 0.000E+00 0.000E+00 0.000E+00 0.000E+00    1        7        0        0
      7  6.250E+01 0.000E+00 0.000E+00 0.000E+00 0.000E+00    1        8        0        0
      8  6.250E+01 0.000E+00 0.000E+00 0.000E+00 0.000E+00    1        9        0        0
      9  6.250E+01 0.000E+00 0.000E+00 0.000E+00 0.000E+00    1       10        0        0
     10  6.250E+01 0.000E+00 0.000E+00 0.000E+00 0.000E+00    1       11        0        0
     11  6.250E+01 0.000E+00 0.000E+00 0.000E+00 0.000E+00    1       12        0        0
     12  6.250E+01 0.000E+00 0.000E+00 0.000E+00 0.000E+00    1       13        0        0
     13  6.250E+01 0.000E+00 0.000E+00 0.000E+00 0.000E+00    1       14        0        0
     14  6.250E+01 0.000E+00 0.000E+00 0.000E+00 0.000E+00    1       15        0        0
     15  6.250E+01 0.000E+00 0.000E+00 0.000E+00 0.000E+00    1       16        0        0
     16  6.250E+01 0.000E+00 0.000E+00 0.000E+00 0.000E+00    1       17        0        0
     17  6.250E+01 0.000E+00 0.000E+00 0.000E+00 0.000E+00    1       18        0        0
     18  6.250E+01 0.000E+00 0.000E+00 0.000E+00 0.000E+00    1       19        0        0
     19  6.250E+01 0.000E+00 0.000E+00 0.000E+00 0.000E+00    1       20        0        0
     20  6.250E+01 0.000E+00 0.000E+00 0.000E+00 0.000E+00    1       21        0        0
     21  6.250E+01 0.000E+00 0.000E+00 0.000E+00 0.000E+00    1       22        0        0
     22  6.250E+01 0.000E+00 0.000E+00 0.000E+00 0.000E+00    1       23        0        0
     23  6.250E+01 0.000E+00 0.000E+00 0.000E+00 0.000E+00    1       24        0        0
     24  6.250E+01 0.000E+00 0.000E+00 0.000E+00 0.000E+00    1       25        0        0
     25  6.250E+01 0.000E+00 0.000E+00 0.000E+00 0.000E+00    1       26        0        0
     26  6.250E+01 0.000E+00 0.000E+00 0.000E+00 0.000E+00    1       27        0        0
     27  6.250E+01 0.000E+00 0.000E+00 0.000E+00 0.000E+00    1       28        0        0
     28  6.250E+01 0.000E+00 0.000E+00 0.000E+00 0.000E+00    1       29        0        0
     29  6.250E+01 0.000E+00 0.000E+00 0.000E+00 0.000E+00    1       30        0        0
     30  6.250E+01 0.000E+00 0.000E+00 0.000E+00 0.000E+00    1       31        0        0
     31  6.250E+01 0.000E+00 0.000E+00 0.000E+00 0.000E+00    1       32        0        0
     32  6.250E+01 0.000E+00 0.000E+00 0.000E+00 0.000E+00    1       33        0        0
     33  6.250E+01 0.000E+00 0.000E+00 0.000E+00 0.000E+00    1       34        0        0
     34  6.250E+01 0.000E+00 0.000E+00 0.000E+00 0.000E+00    1       35        0        0
     35  6.250E+01 0.000E+00 0.000E+00 0.000E+00 0.000E+00    1       36        0        0
     36  6.250E+01 0.000E+00 0.000E+00 0.000E+00 0.000E+00    1       37        0        0
     37  6.250E+01 0.000E+00 0.000E+00 0.000E+00 0.000E+00    1       38        0        0
     38  6.250E+01 0.000E+00 0.000E+00 0.000E+00 0.000E+00    1       39        0        0
     39  6.250E+01 0.000E+00 0.000E+00 0.000E+00 0.000E+00    1       40        0        0
     40  6.250E+01 0.000E+00 0.000E+00 0.000E+00 0.000E+00    1       41        0        0
     41  6.250E+01 0.000E+00 0.000E+00 0.000E+00 0.000E+00    1       42        0        0
     42  6.250E+01 0.000E+00 0.000E+00 0.000E+00 0.000E+00    1       43        0        0
     43  6.250E+01 0.000E+00 0.000E+00 0.000E+00 0.000E+00    1       44        0        0
     44  6.250E+01 0.000E+00 0.000E+00 0.000E+00 0.000E+00    1       45        0        0
     45  6.250E+01 0.000E+00 0.000E+00 0.000E+00 0.000E+00    1       46        0        0
     46  6.250E+01 0.000E+00 0.000E+00 0.000E+00 0.000E+00    1       47        0        0
     47  6.250E+01 0.000E+00 0.000E+00 0.000E+00 0.000E+00    1       48        0        0
     48  6.250E+01 0.000E+00 0.000E+00 0.000E+00 0.000E+00    1       49        0        0
     49  6.250E+01 0.000E+00 0.000E+00 0.000E+00 0.000E+00    1       50        0        0
     50  6.250E+01 0.000E+00 0.000E+00 0.000E+00 0.000E+00    1       51        0        0
     51  6.250E+01 0.000E+00 0.000E+00 0.000E+00 0.000E+00    1       52        0        0
     52  6.250E+01 0.000E+00 0.000E+00 0.000E+00 0.000E+00    1       53        0        0
     53  6.250E+01 0.000E+00 0.000E+00 0.000E+00 0.000E+00    1       54        0        0
     54  6.250E+01 0.000E+00 0.000E+00 0.000E+00 0.000E+00    1       55        0        0
     55  6.250E+01 0.000E+00 0.000E+00 0.000E+00 0.000E+00    1       56        0        0
     56  6.250E+01 0.000E+00 0.000E+00 0.000E+00 0.000E+00    1       57        0        0
     57  6.250E+01 0.000E+00 0.000E+00 0.000E+00 0.000E+00    1       58        0        0
     58  6.250E+01 0.000E+00 0.000E+00 0.000E+00 0.000E+00    1       59        0        0
     59  6.250E+01 0.000E+00 0.000E+00 0.000E+00 0.000E+00    1       60        0        0
     60  6.250E+01 0.000E+00 0.000E+00 0.000E+00 0.000E+00    1       61        0        0
     61  6.250E+01 0.000E+00 0.000E+00 0.000E+00 0.000E+00    1       62        0        0
     62  6.250E+01 0.000E+00 0.000E+00 0.000E+00 0.000E+00    1       63        0        0
     63  6.250E+01 0.000E+00 0.000E+00 0.000E+00 0.000E+00    1       64        0        0
     64  6.250E+01 0.000E+00 0.000E+00 0.000E+00 0.000E+00    1       65        0        0
     65  6.250E+01 0.000E+00 0.000E+00 0.000E+00 0.000E+00    1       66        0        0
     66  6.250E+01 0.000E+00 0.000E+00 0.000E+00 0.000E+00    1       67        0        0
     67  6.250E+01 0.000E+00 0.000E+00 0.000E+00 0.000E+00    1       68        0        0
     68  6.250E+01 0.000E+00 0.000E+00 0.000E+00 0.000E+00    1       69        0        0
     69  6.250E+01 0.000E+00 0.000E+00 0.000E+00 0.000E+00    1       70        0        0
     70  6.250E+01 0.000E+00 0.000E+00 0.000E+00 0.000E+00    1       71        0        0
     71  6.250E+01 0.000E+00 0.000E+00 0.000E+00 0.000E+00    1       72        0        0
     72  6.250E+01 0.000E+00 0.000E+00 0.000E+00 0.000E+00    1       73        0        0
     73  6.250E+01 0.000E+00 0.000E+00 0.000E+00 0.000E+00    1       74        0        0
     74  6.250E+01 0.000E+00 0.000E+00 0.000E+00 0.000E+00    1       75        0        0
     75  6.250E+01 0.000E+00 0.000E+00 0.000E+00 0.000E+00    1       76        0        0
     76  6.250E+01 0.000E+00 0.000E+00 0.000E+00 0.000E+00    1       77        0        0
     77  6.250E+01 0.000E+00 0.000E+00 0.000E+00 0.000E+00    1       78        0        0
     78  6.250E+01 0.000E+00 0.000E+00 0.000E+00 0.000E+00    1       79        0        0
     79  6.250E+01 0.000E+00 0.000E+00 0.000E+00 0.000E+00    1       80        0        0
     80  6.250E+01 0.000E+00 0.000E+00 0.000E+00 0.000E+00    1       81        0        0
     81  6.250E+01 0.000E+00 0.000E+00 0.000E+00 0.000E+00    1       82        0        0
     82  6.250E+01 0.000E+00 0.000E+00 0.000E+00 0.000E+00    1       83        0        0
     83  6.250E+01 0.000E+00 0.000E+00 0.000E+00 0.000E+00    1       84        0        0
     84  6.250E+01 0.000E+00 0.000E+00 0.000E+00 0.000E+00    1       85        0        0
     85  6.250E+01 0.000E+00 0.000E+00 0.000E+00 0.000E+00    1       86        0        0
     86  6.250E+01 0.000E+00 0.000E+00 0.000E+00 0.000E+00    1       87        0        0
     87  6.250E+01 0.000E+00 0.000E+00 0.000E+00 0.000E+00    1       88        0        0
     88  6.250E+01 0.000E+00 0.000E+00 0.000E+00 0.000E+00    1       89        0        0
     89  6.250E+01 0.000E+00 0.000E+00 0.000E+00 0.000E+00    1       90        0        0
     90  6.250E+01 0.000E+00 0.000E+00 0.000E+00 0.000E+00    1       91        0        0
     91  6.250E+01 0.000E+00 0.000E+00 0.000E+00 0.000E+00    1       92        0        0
     92  6.250E+01 0.000E+00 0.000E+00 0.000E+00 0.000E+00    1       93        0        0
     93  6.250E+01 0.000E+00 0.000E+00 0.000E+00 0.000E+00    1       94        0        0
     94  6.250E+01 0.000E+00 0.000E+00 0.000E+00 0.000E+00    1       95        0        0
     95  6.250E+01 0.000E+00 0.000E+00 0.000E+00 0.000E+00    1       96        0        0
     96  6.250E+01 0.000E+00 0.000E+00 0.000E+00 0.000E+00    1       97        0        0
     97  6.250E+01 0.000E+00 0.000E+00 0.000E+00 0.000E+00    1       98        0        0
     98  6.250E+01 0.000E+00 0.000E+00 0.000E+00 0.000E+00    1       99        0        0
     99  6.250E+01 0.000E+00 0.000E+00 0.000E+00 0.000E+00    1      100        0        0
    100  6.250E+01 0.000E+00 0.000E+00 0.000E+00 0.000E+00    1      101        0        0
    101  6.250E+01 0.000E+00 0.000E+00 0.000E+00 0.000E+00    1      102        0        0
    102  6.250E+01 0.000E+00 0.000E+00 0.000E+00 0.000E+00    1      103        0        0
    103  6.250E+01 0.000E+00 0.000E+00 0.000E+00 0.000E+00    1      104        0        0
    104  6.250E+01 0.000E+00 0.000E+00 0.000E+00 0.000E+00    1      105        0        0
    105  6.250E+01 0.000E+00 0.000E+00 0.000E+00 0.000E+00    1      106        0        0
    106  6.250E+01 0.000E+00 0.000E+00 0.000E+00 0.000E+00    1      107        0        0
    107  6.250E+01 0.000E+00 0.000E+00 0.000E+00 0.000E+00    1      108        0        0
    108  6.250E+01 0.000E+00 0.000E+00 0.000E+00 0.000E+00    1      109        0        0
    109  6.250E+01 0.000E+00 0.000E+00 0.000E+00 0.000E+00    1      110        0        0
    110  6.250E+01 0.000E+00 0.000E+00 0.000E+00 0.000E+00    1      111        0        0
    111  6.250E+01 0.000E+00 0.000E+00 0.000E+00 0.000E+00    1      112        0        0
    112  6.250E+01 0.000E+00 0.000E+00 0.000E+00 0.000E+00    1      113        0        0
    113  6.250E+01 0.000E+00 0.000E+00 0.000E+00 0.000E+00    1      114        0        0
    114  6.250E+01 0.000E+00 0.000E+00 0.000E+00 0.000E+00    1      115        0        0
    115  6.250E+01 0.000E+00 0.000E+00 0.000E+00 0.000E+00    1      116        0        0
    116  6.250E+01 0.000E+00 0.000E+00 0.000E+00 0.000E+00    1      117        0        0
    117  6.250E+01 0.000E+00 0.000E+00 0.000E+00 0.000E+00    1      118        0        0
    118  6.250E+01 0.000E+00 0.000E+00 0.000E+00 0.000E+00    1      119        0        0
    119  6.250E+01 0.000E+00 0.000E+00 0.000E+00 0.000E+00    1      120        0        0
    120  6.250E+01 0.000E+00 0.000E+00 0.000E+00 0.000E+00    1      121        0        0
    121  6.250E+01 0.000E+00 0.000E+00 0.000E+00 0.000E+00    1      122        0        0
    122  6.250E+01 0.000E+00 0.000E+00 0.000E+00 0.000E+00    1      123        0        0
    123  6.250E+01 0.000E+00 0.000E+00 0.000E+00 0.000E+00    1      124        0        0
    124  6.250E+01 0.000E+00 0.000E+00 0.000E+00 0.000E+00    1      125        0        0
    125  6.250E+01 0.000E+00 0.000E+00 0.000E+00 0.000E+00    1      126        0        0
    126  6.250E+01 0.000E+00 0.000E+00 0.000E+00 0.000E+00    1      127        0        0
    127  6.250E+01 0.000E+00 0.000E+00 0.000E+00 0.000E+00    1      128        0        0
    128  6.250E+01 0.000E+00 0.000E+00 0.000E+00 0.000E+00    1      129        0        0
    129  6.250E+01 0.000E+00 0.000E+00 0.000E+00 0.000E+00    1      130        0        0
    130  6.250E+01 0.000E+00 0.000E+00 0.000E+00 0.000E+00    1      131        0        0
    131  6.250E+01 0.000E+00 0.000E+00 0.000E+00 0.000E+00    1      132        0        0
    132  6.250E+01 0.000E+00 0.000E+00 0.000E+00 0.000E+00    1      133        0        0
    133  6.250E+01 0.000E+00 0.000E+00 0.000E+00 0.000E+00    1      134        0        0
    134  6.250E+01 0.000E+00 0.000E+00 0.000E+00 0.000E+00    1      135        0        0
    135  6.250E+01 0.000E+00 0.000E+00 0.000E+00 0.000E+00    1      136        0        0
    136  6.250E+01 0.000E+00 0.000E+00 0.000E+00 0.000E+00    1      137        0        0
    137  6.250E+01 0.000E+00 0.000E+00 0.000E+00 0.000E+00    1      138        0        0
    138  6.250E+01 0.000E+00 0.000E+00 0.000E+00 0.000E+00    1      139        0        0
    139  6.250E+01 0.000E+00 0.000E+00 0.000E+00 0.000E+00    1      140        0        0
    140  6.250E+01 0.000E+00 0.000E+00 0.000E+00 0.000E+00    1      141        0        0
    141  6.250E+01 0.000E+00 0.000E+00 0.000E+00 0.000E+00    1      142        0        0
    142  6.250E+01 0.000E+00 0.000E+00 0.000E+00 0.000E+00    1      143        0        0
    143  6.250E+01 0.000E+00 0.000E+00 0.000E+00 0.000E+00    1      144        0        0
    144  6.250E+01 0.000E+00 0.000E+00 0.000E+00 0.000E+00    1      145        0        0
    145  6.250E+01 0.000E+00 0.000E+00 0.000E+00 0.000E+00    1      146        0        0
    146  6.250E+01 0.000E+00 0.000E+00 0.000E+00 0.000E+00    1      147        0        0
    147  6.250E+01 0.000E+00 0.000E+00 0.000E+00 0.000E+00    1      148        0        0
    148  6.250E+01 0.000E+00 0.000E+00 0.000E+00 0.000E+00    1      149        0        0
    149  6.250E+01 0.000E+00 0.000E+00 0.000E+00 0.000E+00    1      150        0        0
    150  6.250E+01 0.000E+00 0.000E+00 0.000E+00 0.000E+00    1      151        0        0
    151  6.250E+01 0.000E+00 0.000E+00 0.000E+00 0.000E+00    1      152        0        0
    152  6.250E+01 0.000E+00 0.000E+00 0.000E+00 0.000E+00    1      153        0        0
    153  6.250E+01 0.000E+00 0.000E+00 0.000E+00 0.000E+00    1      154        0        0
    154  6.250E+01 0.000E+00 0.000E+00 0.000E+00 0.000E+00    1      155        0        0
    155  6.250E+01 0.000E+00 0.000E+00 0.000E+00 0.000E+00    1      156        0        0
    156  6.250E+01 0.000E+00 0.000E+00 0.000E+00 0.000E+00    1      157        0        0
    157  6.250E+01 0.000E+00 0.000E+00 0.000E+00 0.000E+00    1      158        0        0
    158  6.250E+01 0.000E+00 0.000E+00 0.000E+00 0.000E+00    1      159        0        0
    159  6.250E+01 0.000E+00 0.000E+00 0.000E+00 0.000E+00    1      160        0        0
    160  6.250E+01 0.000E+00 0.000E+00 0.000E+00 0.000E+00    1      161        0        0


         STREAMBED PROPERTIES AND STREAM DIMENSIONS

 SEGMENT     WIDTH OF STREAM     DEPTH OF STREAM    STREAM ROUGHNESS
    No.     UPPER     LOWER     UPPER     LOWER     CHANNEL      BANK

     1    5.000E+00 5.000E+00                      1.000E-01
     2    5.000E+00 5.000E+00                      1.000E-01
     3    5.000E+00 5.000E+00                      1.000E-01
     4    5.000E+00 5.000E+00                      1.000E-01
     5    5.000E+00 5.000E+00                      1.000E-01
     6    5.000E+00 5.000E+00                      1.000E-01
     7    5.000E+00 5.000E+00                      1.000E-01
     8    5.000E+00 5.000E+00                      1.000E-01
     9    5.000E+00 5.000E+00                      1.000E-01
    10    5.000E+00 5.000E+00                      1.000E-01
    11    5.000E+00 5.000E+00                      1.000E-01
    12    5.000E+00 5.000E+00                      1.000E-01
    13    5.000E+00 5.000E+00                      1.000E-01
    14    5.000E+00 5.000E+00                      1.000E-01
    15    5.000E+00 5.000E+00                      1.000E-01
    16    5.000E+00 5.000E+00                      1.000E-01
    17    5.000E+00 5.000E+00                      1.000E-01
    18    5.000E+00 5.000E+00                      1.000E-01
    19    5.000E+00 5.000E+00                      1.000E-01
    20    5.000E+00 5.000E+00                      1.000E-01
    21    5.000E+00 5.000E+00                      1.000E-01
    22    5.000E+00 5.000E+00                      1.000E-01
    23    5.000E+00 5.000E+00                      1.000E-01
    24    5.000E+00 5.000E+00                      1.000E-01
    25    5.000E+00 5.000E+00                      1.000E-01
    26    5.000E+00 5.000E+00                      1.000E-01
    27    5.000E+00 5.000E+00                      1.000E-01
    28    5.000E+00 5.000E+00                      1.000E-01
    29    5.000E+00 5.000E+00                      1.000E-01
    30    5.000E+00 5.000E+00                      1.000E-01
    31    5.000E+00 5.000E+00                      1.000E-01
    32    5.000E+00 5.000E+00                      1.000E-01
    33    5.000E+00 5.000E+00                      1.000E-01
    34    5.000E+00 5.000E+00                      1.000E-01
    35    5.000E+00 5.000E+00                      1.000E-01
    36    5.000E+00 5.000E+00                      1.000E-01
    37    5.000E+00 5.000E+00                      1.000E-01
    38    5.000E+00 5.000E+00                      1.000E-01
    39    5.000E+00 5.000E+00                      1.000E-01
    40    5.000E+00 5.000E+00                      1.000E-01
    41    5.000E+00 5.000E+00                      1.000E-01
    42    5.000E+00 5.000E+00                      1.000E-01
    43    5.000E+00 5.000E+00                      1.000E-01
    44    5.000E+00 5.000E+00                      1.000E-01
    45    5.000E+00 5.000E+00                      1.000E-01
    46    5.000E+00 5.000E+00                      1.000E-01
    47    5.000E+00 5.000E+00                      1.000E-01
    48    5.000E+00 5.000E+00                      1.000E-01
    49    5.000E+00 5.000E+00                      1.000E-01
    50    5.000E+00 5.000E+00                      1.000E-01
    51    5.000E+00 5.000E+00                      1.000E-01
    52    5.000E+00 5.000E+00                      1.000E-01
    53    5.000E+00 5.000E+00                      1.000E-01
    54    5.000E+00 5.000E+00                      1.000E-01
    55    5.000E+00 5.000E+00                      1.000E-01
    56    5.000E+00 5.000E+00                      1.000E-01
    57    5.000E+00 5.000E+00                      1.000E-01
    58    5.000E+00 5.000E+00                      1.000E-01
    59    5.000E+00 5.000E+00                      1.000E-01
    60    5.000E+00 5.000E+00                      1.000E-01
    61    5.000E+00 5.000E+00                      1.000E-01
    62    5.000E+00 5.000E+00                      1.000E-01
    63    5.000E+00 5.000E+00                      1.000E-01
    64    5.000E+00 5.000E+00                      1.000E-01
    65    5.000E+00 5.000E+00                      1.000E-01
    66    5.000E+00 5.000E+00                      1.000E-01
    67    5.000E+00 5.000E+00                      1.000E-01
    68    5.000E+00 5.000E+00                      1.000E-01
    69    5.000E+00 5.000E+00                      1.000E-01
    70    5.000E+00 5.000E+00                      1.000E-01
    71    5.000E+00 5.000E+00                      1.000E-01
    72    5.000E+00 5.000E+00                      1.000E-01
    73    5.000E+00 5.000E+00                      1.000E-01
    74    5.000E+00 5.000E+00                      1.000E-01
    75    5.000E+00 5.000E+00                      1.000E-01
    76    5.000E+00 5.000E+00                      1.000E-01
    77    5.000E+00 5.000E+00                      1.000E-01
    78    5.000E+00 5.000E+00                      1.000E-01
    79    5.000E+00 5.000E+00                      1.000E-01
    80    5.000E+00 5.000E+00                      1.000E-01
    81    5.000E+00 5.000E+00                      1.000E-01
    82    5.000E+00 5.000E+00                      1.000E-01
    83    5.000E+00 5.000E+00                      1.000E-01
    84    5.000E+00 5.000E+00                      1.000E-01
    85    5.000E+00 5.000E+00                      1.000E-01
    86    5.000E+00 5.000E+00                      1.000E-01
    87    5.000E+00 5.000E+00                      1.000E-01
    88    5.000E+00 5.000E+00                      1.000E-01
    89    5.000E+00 5.000E+00                      1.000E-01
    90    5.000E+00 5.000E+00                      1.000E-01
    91    5.000E+00 5.000E+00                      1.000E-01
    92    5.000E+00 5.000E+00                      1.000E-01
    93    5.000E+00 5.000E+00                      1.000E-01
    94    5.000E+00 5.000E+00                      1.000E-01
    95    5.000E+00 5.000E+00                      1.000E-01
    96    5.000E+00 5.000E+00                      1.000E-01
    97    5.000E+00 5.000E+00                      1.000E-01
    98    5.000E+00 5.000E+00                      1.000E-01
    99    5.000E+00 5.000E+00                      1.000E-01
   100    5.000E+00 5.000E+00                      1.000E-01
   101    5.000E+00 5.000E+00                      1.000E-01
   102    5.000E+00 5.000E+00                      1.000E-01
   103    5.000E+00 5.000E+00                      1.000E-01
   104    5.000E+00 5.000E+00                      1.000E-01
   105    5.000E+00 5.000E+00                      1.000E-01
   106    5.000E+00 5.000E+00                      1.000E-01
   107    5.000E+00 5.000E+00                      1.000E-01
   108    5.000E+00 5.000E+00                      1.000E-01
   109    5.000E+00 5.000E+00                      1.000E-01
   110    5.000E+00 5.000E+00                      1.000E-01
   111    5.000E+00 5.000E+00                      1.000E-01
   112    5.000E+00 5.000E+00                      1.000E-01
   113    5.000E+00 5.000E+00                      1.000E-01
   114    5.000E+00 5.000E+00                      1.000E-01
   115    5.000E+00 5.000E+00                      1.000E-01
   116    5.000E+00 5.000E+00                      1.000E-01
   117    5.000E+00 5.000E+00                      1.000E-01
   118    5.000E+00 5.000E+00                      1.000E-01
   119    5.000E+00 5.000E+00                      1.000E-01
   120    5.000E+00 5.000E+00                      1.000E-01
   121    5.000E+00 5.000E+00                      1.000E-01
   122    5.000E+00 5.000E+00                      1.000E-01
   123    5.000E+00 5.000E+00                      1.000E-01
   124    5.000E+00 5.000E+00                      1.000E-01
   125    5.000E+00 5.000E+00                      1.000E-01
   126    5.000E+00 5.000E+00                      1.000E-01
   127    5.000E+00 5.000E+00                      1.000E-01
   128    5.000E+00 5.000E+00                      1.000E-01
   129    5.000E+00 5.000E+00                      1.000E-01
   130    5.000E+00 5.000E+00                      1.000E-01
   131    5.000E+00 5.000E+00                      1.000E-01
   132    5.000E+00 5.000E+00                      1.000E-01
   133    5.000E+00 5.000E+00                      1.000E-01
   134    5.000E+00 5.000E+00                      1.000E-01
   135    5.000E+00 5.000E+00                      1.000E-01
   136    5.000E+00 5.000E+00                      1.000E-01
   137    5.000E+00 5.000E+00                      1.000E-01
   138    5.000E+00 5.000E+00                      1.000E-01
   139    5.000E+00 5.000E+00                      1.000E-01
   140    5.000E+00 5.000E+00                      1.000E-01
   141    5.000E+00 5.000E+00                      1.000E-01
   142    5.000E+00 5.000E+00                      1.000E-01
   143    5.000E+00 5.000E+00                      1.000E-01
   144    5.000E+00 5.000E+00                      1.000E-01
   145    5.000E+00 5.000E+00                      1.000E-01
   146    5.000E+00 5.000E+00                      1.000E-01
   147    5.000E+00 5.000E+00                      1.000E-01
   148    5.000E+00 5.000E+00                      1.000E-01
   149    5.000E+00 5.000E+00                      1.000E-01
   150    5.000E+00 5.000E+00                      1.000E-01
   151    5.000E+00 5.000E+00                      1.000E-01
   152    5.000E+00 5.000E+00                      1.000E-01
   153    5.000E+00 5.000E+00                      1.000E-01
   154    5.000E+00 5.000E+00                      1.000E-01
   155    5.000E+00 5.000E+00                      1.000E-01
   156    5.000E+00 5.000E+00                      1.000E-01
   157    5.000E+00 5.000E+00                      1.000E-01
   158    5.000E+00 5.000E+00                      1.000E-01
   159    5.000E+00 5.000E+00                      1.000E-01
   160    5.000E+00 5.000E+00                      1.000E-01



 
 SOLVING FOR HEAD 


 OUTER ITERATION SUMMARY
 -----------------------
 BT: Backtracking; LA: Linear Acceleration; UR: Under-relaxation

    Outer-Iteration  Inner-Iteration    Maximum Head Change  Maximum Head Change
        Number           Count               Value              Location
LA         1                7               0.32460                  4092           GWF-node number
LA         2                5               0.72806E-02              1356           GWF-node number
LA         3                2               0.27431E-03              1425           GWF-node number
LA         4                1               0.23290E-04              1908           GWF-node number


     4 CALLS TO SPARSE MATRIX SOLVER PACKAGE  IN FLOW TIME STEP   1 STRESS PERIOD  14

 TOTAL OF       4OUTER ITERATIONS
  MAXIMUM CHANGE FOR EACH ITERATION:
   MAX. CHANGE        NODE  MAX. CHANGE        NODE  MAX. CHANGE        NODE  MAX. CHANGE        NODE  MAX. CHANGE        NODE
 ------------------------------------------------------------------------------------------------------------------------------------
   0.32460    ,       4092  0.72806E-02,       1356  0.27431E-03,       1425  0.23290E-04,       1908

 OUTPUT CONTROL FOR STRESS PERIOD       14   TIME STEP        1
    SAVE HEAD FOR ALL LAYERS
    SAVE BUDGET
 UBDSV1U SAVING "         STORAGE" ON UNIT  50 AT TIME STEP      1, STRESS PERIOD     14
 UBDSV2U SAVING "   CONSTANT HEAD" ON UNIT  50 AT TIME STEP      1, STRESS PERIOD     14
 UBDSV1U SAVING "   FLOW JA FACE " ON UNIT  50 AT TIME STEP      1, STRESS PERIOD     14
 UBDSV4U SAVING "           WELLS" ON UNIT  50 AT TIME STEP      1, STRESS PERIOD     14
 UBDSV4U SAVING " HEAD DEP BOUNDS" ON UNIT  50 AT TIME STEP      1, STRESS PERIOD     14
 UBDSV3U SAVING "        RECHARGE" ON UNIT  50 AT TIME STEP      1, STRESS PERIOD     14
 UBDSV2U SAVING "  STREAM LEAKAGE" ON UNIT  50 AT TIME STEP      1, STRESS PERIOD     14




 HEAD WILL BE SAVED ON UNIT   51 AT END OF TIME STEP   1, STRESS PERIOD   14
1
  VOLUMETRIC BUDGET FOR ENTIRE MODEL AT END OF TIME STEP       1 IN STRESS PERIOD      14
  ---------------------------------------------------------------------------------------

     CUMULATIVE VOLUMES      L**3       RATES FOR THIS TIME STEP      L**3/T
     ------------------                 ------------------------

           IN:                                      IN:
           ---                                      ---
             STORAGE =      342724.0954               STORAGE =           0.0000
       CONSTANT HEAD =           0.0000         CONSTANT HEAD =           0.0000
               WELLS =           0.0000                 WELLS =           0.0000
     HEAD DEP BOUNDS =      146380.7559       HEAD DEP BOUNDS =         298.6498
            RECHARGE =     1097997.5171              RECHARGE =        4197.4805
      STREAM LEAKAGE =       81171.0706        STREAM LEAKAGE =         108.8650

            TOTAL IN =     1668273.4390              TOTAL IN =        4604.9953

          OUT:                                     OUT:
          ----                                     ----
             STORAGE =      389869.3731               STORAGE =        2782.6356
       CONSTANT HEAD =           0.0000         CONSTANT HEAD =           0.0000
               WELLS =      912185.8772                 WELLS =         923.2132
     HEAD DEP BOUNDS =      197191.2097       HEAD DEP BOUNDS =         611.3344
            RECHARGE =           0.0000              RECHARGE =           0.0000
      STREAM LEAKAGE =      169028.1578        STREAM LEAKAGE =         287.7973

           TOTAL OUT =     1668274.6178             TOTAL OUT =        4604.9805

            IN - OUT =          -1.1789              IN - OUT =       1.4809E-02

 PERCENT DISCREPANCY =          -0.00     PERCENT DISCREPANCY =           0.00






          TIME SUMMARY AT END OF TIME STEP         1 IN STRESS PERIOD        14
                    SECONDS     MINUTES      HOURS       DAYS        YEARS
                    -----------------------------------------------------------
   TIME STEP LENGTH 2.67840E+06  44640.      744.00      31.000     8.48734E-02
 STRESS PERIOD TIME 2.67840E+06  44640.      744.00      31.000     8.48734E-02
         TOTAL TIME 3.43872E+07 5.73120E+05  9552.0      398.00      1.0897    
1
1
                            STRESS PERIOD NO.   15, LENGTH =   28.00000    
                            -----------------------------------------------

                              NUMBER OF TIME STEPS =     1

                               MULTIPLIER FOR DELT =     1.000

                            INITIAL TIME STEP SIZE =   28.00000    

 WEL -- WELL PACKAGE, VERSION 7, 5/2/2005 INPUT READ FROM UNIT   20

 WELL NO.      NODE       STRESS FACTOR         
 -----------------------------------------------
      1        3324      -132.8    
      2        3409      -132.8    
      3        3737      -132.8    
      4        3971      -132.8    
      5        4092      -132.8    
      6        4297      -132.8    

      6 WELLS

 GHB -- GENERAL-HEAD BOUNDARY PACKAGE, VERSION 7, 5/2/2005
         INPUT READ FROM UNIT   30

 BOUND NO.     NODE         STAGE         CONDUCTANCE         
 -------------------------------------------------------------
      1        1473       33.50           70.00    
      2        1474       33.50           70.00    
      3        1475       33.50           70.00    
      4        1476       33.50           70.00    
      5        1477       33.50           70.00    
      6        1478       33.50           70.00    
      7        1479       33.50           70.00    
      8        1480       33.50           70.00    
      9        1481       33.50           70.00    
     10        1482       33.50           70.00    
     11        2972       33.50           70.00    
     12        2973       33.50           70.00    
     13        2974       33.50           70.00    
     14        2975       33.50           70.00    
     15        2976       33.50           70.00    
     16        2977       33.50           70.00    
     17        2978       33.50           70.00    
     18        2979       33.50           70.00    
     19        2980       33.50           70.00    
     20        2981       33.50           70.00    
     21        4471       33.50           70.00    
     22        4472       33.50           70.00    
     23        4473       33.50           70.00    
     24        4474       33.50           70.00    
     25        4475       33.50           70.00    
     26        4476       33.50           70.00    
     27        4477       33.50           70.00    
     28        4478       33.50           70.00    
     29        4479       33.50           70.00    
     30        4480       33.50           70.00    
     31        2999       35.50           70.00    
     32        3000       35.50           70.00    
     33        3001       35.50           70.00    
     34        3002       35.50           70.00    
     35        3003       35.50           70.00    
     36        3004       35.50           70.00    
     37        3005       35.50           70.00    
     38        3006       35.50           70.00    
     39        3007       35.50           70.00    
     40        3008       35.50           70.00    
     41        3009       35.50           70.00    
     42        3010       35.50           70.00    
     43        3011       35.50           70.00    
     44        3012       35.50           70.00    
     45        3013       35.50           70.00    
     46        3023       35.50           4.375    
     47        3027       35.50           17.50    
     48        3028       35.50           70.00    
     49        3029       35.50           70.00    
     50        3030       35.50           70.00    

     50 GHB CELLS

 RCH -- RECHARGE PACKAGE, VERSION 7, 5/2/2005 INPUT READ FROM UNIT   31



                           RECHARGE
 READING ON UNIT   31 WITH FORMAT: (1499E15.6)         



 CLASSIFICATION & COUNT OF STREAM SEGMENTS BASED ON SOURCE OF INFLOW:

                HEADWATER     DIVERSION     RECEIVES TRIBUTARY FLOW
                ---------     ---------     -----------------------
                     1              0             159



                    INPUT DATA FOR EACH STREAM SEGMENT
 ---------------------------------------------------------------------------------------------

 SEGMENT    SEG.     INFLOW   OVERLAND   STREAM    STREAM   ICALC  OUTFLOW  DIVERSION PRIORITY
    NO.    LENGTH     RATE     RUNOFF      ET       PPT.    METH.  TO SEG.  FROM SEG.    NO.

      1  6.250E+01 1.630E+04 0.000E+00 0.000E+00 0.000E+00    1        2        0        0
      2  6.250E+01 0.000E+00 0.000E+00 0.000E+00 0.000E+00    1        3        0        0
      3  6.250E+01 0.000E+00 0.000E+00 0.000E+00 0.000E+00    1        4        0        0
      4  6.250E+01 0.000E+00 0.000E+00 0.000E+00 0.000E+00    1        5        0        0
      5  6.250E+01 0.000E+00 0.000E+00 0.000E+00 0.000E+00    1        6        0        0
      6  6.250E+01 0.000E+00 0.000E+00 0.000E+00 0.000E+00    1        7        0        0
      7  6.250E+01 0.000E+00 0.000E+00 0.000E+00 0.000E+00    1        8        0        0
      8  6.250E+01 0.000E+00 0.000E+00 0.000E+00 0.000E+00    1        9        0        0
      9  6.250E+01 0.000E+00 0.000E+00 0.000E+00 0.000E+00    1       10        0        0
     10  6.250E+01 0.000E+00 0.000E+00 0.000E+00 0.000E+00    1       11        0        0
     11  6.250E+01 0.000E+00 0.000E+00 0.000E+00 0.000E+00    1       12        0        0
     12  6.250E+01 0.000E+00 0.000E+00 0.000E+00 0.000E+00    1       13        0        0
     13  6.250E+01 0.000E+00 0.000E+00 0.000E+00 0.000E+00    1       14        0        0
     14  6.250E+01 0.000E+00 0.000E+00 0.000E+00 0.000E+00    1       15        0        0
     15  6.250E+01 0.000E+00 0.000E+00 0.000E+00 0.000E+00    1       16        0        0
     16  6.250E+01 0.000E+00 0.000E+00 0.000E+00 0.000E+00    1       17        0        0
     17  6.250E+01 0.000E+00 0.000E+00 0.000E+00 0.000E+00    1       18        0        0
     18  6.250E+01 0.000E+00 0.000E+00 0.000E+00 0.000E+00    1       19        0        0
     19  6.250E+01 0.000E+00 0.000E+00 0.000E+00 0.000E+00    1       20        0        0
     20  6.250E+01 0.000E+00 0.000E+00 0.000E+00 0.000E+00    1       21        0        0
     21  6.250E+01 0.000E+00 0.000E+00 0.000E+00 0.000E+00    1       22        0        0
     22  6.250E+01 0.000E+00 0.000E+00 0.000E+00 0.000E+00    1       23        0        0
     23  6.250E+01 0.000E+00 0.000E+00 0.000E+00 0.000E+00    1       24        0        0
     24  6.250E+01 0.000E+00 0.000E+00 0.000E+00 0.000E+00    1       25        0        0
     25  6.250E+01 0.000E+00 0.000E+00 0.000E+00 0.000E+00    1       26        0        0
     26  6.250E+01 0.000E+00 0.000E+00 0.000E+00 0.000E+00    1       27        0        0
     27  6.250E+01 0.000E+00 0.000E+00 0.000E+00 0.000E+00    1       28        0        0
     28  6.250E+01 0.000E+00 0.000E+00 0.000E+00 0.000E+00    1       29        0        0
     29  6.250E+01 0.000E+00 0.000E+00 0.000E+00 0.000E+00    1       30        0        0
     30  6.250E+01 0.000E+00 0.000E+00 0.000E+00 0.000E+00    1       31        0        0
     31  6.250E+01 0.000E+00 0.000E+00 0.000E+00 0.000E+00    1       32        0        0
     32  6.250E+01 0.000E+00 0.000E+00 0.000E+00 0.000E+00    1       33        0        0
     33  6.250E+01 0.000E+00 0.000E+00 0.000E+00 0.000E+00    1       34        0        0
     34  6.250E+01 0.000E+00 0.000E+00 0.000E+00 0.000E+00    1       35        0        0
     35  6.250E+01 0.000E+00 0.000E+00 0.000E+00 0.000E+00    1       36        0        0
     36  6.250E+01 0.000E+00 0.000E+00 0.000E+00 0.000E+00    1       37        0        0
     37  6.250E+01 0.000E+00 0.000E+00 0.000E+00 0.000E+00    1       38        0        0
     38  6.250E+01 0.000E+00 0.000E+00 0.000E+00 0.000E+00    1       39        0        0
     39  6.250E+01 0.000E+00 0.000E+00 0.000E+00 0.000E+00    1       40        0        0
     40  6.250E+01 0.000E+00 0.000E+00 0.000E+00 0.000E+00    1       41        0        0
     41  6.250E+01 0.000E+00 0.000E+00 0.000E+00 0.000E+00    1       42        0        0
     42  6.250E+01 0.000E+00 0.000E+00 0.000E+00 0.000E+00    1       43        0        0
     43  6.250E+01 0.000E+00 0.000E+00 0.000E+00 0.000E+00    1       44        0        0
     44  6.250E+01 0.000E+00 0.000E+00 0.000E+00 0.000E+00    1       45        0        0
     45  6.250E+01 0.000E+00 0.000E+00 0.000E+00 0.000E+00    1       46        0        0
     46  6.250E+01 0.000E+00 0.000E+00 0.000E+00 0.000E+00    1       47        0        0
     47  6.250E+01 0.000E+00 0.000E+00 0.000E+00 0.000E+00    1       48        0        0
     48  6.250E+01 0.000E+00 0.000E+00 0.000E+00 0.000E+00    1       49        0        0
     49  6.250E+01 0.000E+00 0.000E+00 0.000E+00 0.000E+00    1       50        0        0
     50  6.250E+01 0.000E+00 0.000E+00 0.000E+00 0.000E+00    1       51        0        0
     51  6.250E+01 0.000E+00 0.000E+00 0.000E+00 0.000E+00    1       52        0        0
     52  6.250E+01 0.000E+00 0.000E+00 0.000E+00 0.000E+00    1       53        0        0
     53  6.250E+01 0.000E+00 0.000E+00 0.000E+00 0.000E+00    1       54        0        0
     54  6.250E+01 0.000E+00 0.000E+00 0.000E+00 0.000E+00    1       55        0        0
     55  6.250E+01 0.000E+00 0.000E+00 0.000E+00 0.000E+00    1       56        0        0
     56  6.250E+01 0.000E+00 0.000E+00 0.000E+00 0.000E+00    1       57        0        0
     57  6.250E+01 0.000E+00 0.000E+00 0.000E+00 0.000E+00    1       58        0        0
     58  6.250E+01 0.000E+00 0.000E+00 0.000E+00 0.000E+00    1       59        0        0
     59  6.250E+01 0.000E+00 0.000E+00 0.000E+00 0.000E+00    1       60        0        0
     60  6.250E+01 0.000E+00 0.000E+00 0.000E+00 0.000E+00    1       61        0        0
     61  6.250E+01 0.000E+00 0.000E+00 0.000E+00 0.000E+00    1       62        0        0
     62  6.250E+01 0.000E+00 0.000E+00 0.000E+00 0.000E+00    1       63        0        0
     63  6.250E+01 0.000E+00 0.000E+00 0.000E+00 0.000E+00    1       64        0        0
     64  6.250E+01 0.000E+00 0.000E+00 0.000E+00 0.000E+00    1       65        0        0
     65  6.250E+01 0.000E+00 0.000E+00 0.000E+00 0.000E+00    1       66        0        0
     66  6.250E+01 0.000E+00 0.000E+00 0.000E+00 0.000E+00    1       67        0        0
     67  6.250E+01 0.000E+00 0.000E+00 0.000E+00 0.000E+00    1       68        0        0
     68  6.250E+01 0.000E+00 0.000E+00 0.000E+00 0.000E+00    1       69        0        0
     69  6.250E+01 0.000E+00 0.000E+00 0.000E+00 0.000E+00    1       70        0        0
     70  6.250E+01 0.000E+00 0.000E+00 0.000E+00 0.000E+00    1       71        0        0
     71  6.250E+01 0.000E+00 0.000E+00 0.000E+00 0.000E+00    1       72        0        0
     72  6.250E+01 0.000E+00 0.000E+00 0.000E+00 0.000E+00    1       73        0        0
     73  6.250E+01 0.000E+00 0.000E+00 0.000E+00 0.000E+00    1       74        0        0
     74  6.250E+01 0.000E+00 0.000E+00 0.000E+00 0.000E+00    1       75        0        0
     75  6.250E+01 0.000E+00 0.000E+00 0.000E+00 0.000E+00    1       76        0        0
     76  6.250E+01 0.000E+00 0.000E+00 0.000E+00 0.000E+00    1       77        0        0
     77  6.250E+01 0.000E+00 0.000E+00 0.000E+00 0.000E+00    1       78        0        0
     78  6.250E+01 0.000E+00 0.000E+00 0.000E+00 0.000E+00    1       79        0        0
     79  6.250E+01 0.000E+00 0.000E+00 0.000E+00 0.000E+00    1       80        0        0
     80  6.250E+01 0.000E+00 0.000E+00 0.000E+00 0.000E+00    1       81        0        0
     81  6.250E+01 0.000E+00 0.000E+00 0.000E+00 0.000E+00    1       82        0        0
     82  6.250E+01 0.000E+00 0.000E+00 0.000E+00 0.000E+00    1       83        0        0
     83  6.250E+01 0.000E+00 0.000E+00 0.000E+00 0.000E+00    1       84        0        0
     84  6.250E+01 0.000E+00 0.000E+00 0.000E+00 0.000E+00    1       85        0        0
     85  6.250E+01 0.000E+00 0.000E+00 0.000E+00 0.000E+00    1       86        0        0
     86  6.250E+01 0.000E+00 0.000E+00 0.000E+00 0.000E+00    1       87        0        0
     87  6.250E+01 0.000E+00 0.000E+00 0.000E+00 0.000E+00    1       88        0        0
     88  6.250E+01 0.000E+00 0.000E+00 0.000E+00 0.000E+00    1       89        0        0
     89  6.250E+01 0.000E+00 0.000E+00 0.000E+00 0.000E+00    1       90        0        0
     90  6.250E+01 0.000E+00 0.000E+00 0.000E+00 0.000E+00    1       91        0        0
     91  6.250E+01 0.000E+00 0.000E+00 0.000E+00 0.000E+00    1       92        0        0
     92  6.250E+01 0.000E+00 0.000E+00 0.000E+00 0.000E+00    1       93        0        0
     93  6.250E+01 0.000E+00 0.000E+00 0.000E+00 0.000E+00    1       94        0        0
     94  6.250E+01 0.000E+00 0.000E+00 0.000E+00 0.000E+00    1       95        0        0
     95  6.250E+01 0.000E+00 0.000E+00 0.000E+00 0.000E+00    1       96        0        0
     96  6.250E+01 0.000E+00 0.000E+00 0.000E+00 0.000E+00    1       97        0        0
     97  6.250E+01 0.000E+00 0.000E+00 0.000E+00 0.000E+00    1       98        0        0
     98  6.250E+01 0.000E+00 0.000E+00 0.000E+00 0.000E+00    1       99        0        0
     99  6.250E+01 0.000E+00 0.000E+00 0.000E+00 0.000E+00    1      100        0        0
    100  6.250E+01 0.000E+00 0.000E+00 0.000E+00 0.000E+00    1      101        0        0
    101  6.250E+01 0.000E+00 0.000E+00 0.000E+00 0.000E+00    1      102        0        0
    102  6.250E+01 0.000E+00 0.000E+00 0.000E+00 0.000E+00    1      103        0        0
    103  6.250E+01 0.000E+00 0.000E+00 0.000E+00 0.000E+00    1      104        0        0
    104  6.250E+01 0.000E+00 0.000E+00 0.000E+00 0.000E+00    1      105        0        0
    105  6.250E+01 0.000E+00 0.000E+00 0.000E+00 0.000E+00    1      106        0        0
    106  6.250E+01 0.000E+00 0.000E+00 0.000E+00 0.000E+00    1      107        0        0
    107  6.250E+01 0.000E+00 0.000E+00 0.000E+00 0.000E+00    1      108        0        0
    108  6.250E+01 0.000E+00 0.000E+00 0.000E+00 0.000E+00    1      109        0        0
    109  6.250E+01 0.000E+00 0.000E+00 0.000E+00 0.000E+00    1      110        0        0
    110  6.250E+01 0.000E+00 0.000E+00 0.000E+00 0.000E+00    1      111        0        0
    111  6.250E+01 0.000E+00 0.000E+00 0.000E+00 0.000E+00    1      112        0        0
    112  6.250E+01 0.000E+00 0.000E+00 0.000E+00 0.000E+00    1      113        0        0
    113  6.250E+01 0.000E+00 0.000E+00 0.000E+00 0.000E+00    1      114        0        0
    114  6.250E+01 0.000E+00 0.000E+00 0.000E+00 0.000E+00    1      115        0        0
    115  6.250E+01 0.000E+00 0.000E+00 0.000E+00 0.000E+00    1      116        0        0
    116  6.250E+01 0.000E+00 0.000E+00 0.000E+00 0.000E+00    1      117        0        0
    117  6.250E+01 0.000E+00 0.000E+00 0.000E+00 0.000E+00    1      118        0        0
    118  6.250E+01 0.000E+00 0.000E+00 0.000E+00 0.000E+00    1      119        0        0
    119  6.250E+01 0.000E+00 0.000E+00 0.000E+00 0.000E+00    1      120        0        0
    120  6.250E+01 0.000E+00 0.000E+00 0.000E+00 0.000E+00    1      121        0        0
    121  6.250E+01 0.000E+00 0.000E+00 0.000E+00 0.000E+00    1      122        0        0
    122  6.250E+01 0.000E+00 0.000E+00 0.000E+00 0.000E+00    1      123        0        0
    123  6.250E+01 0.000E+00 0.000E+00 0.000E+00 0.000E+00    1      124        0        0
    124  6.250E+01 0.000E+00 0.000E+00 0.000E+00 0.000E+00    1      125        0        0
    125  6.250E+01 0.000E+00 0.000E+00 0.000E+00 0.000E+00    1      126        0        0
    126  6.250E+01 0.000E+00 0.000E+00 0.000E+00 0.000E+00    1      127        0        0
    127  6.250E+01 0.000E+00 0.000E+00 0.000E+00 0.000E+00    1      128        0        0
    128  6.250E+01 0.000E+00 0.000E+00 0.000E+00 0.000E+00    1      129        0        0
    129  6.250E+01 0.000E+00 0.000E+00 0.000E+00 0.000E+00    1      130        0        0
    130  6.250E+01 0.000E+00 0.000E+00 0.000E+00 0.000E+00    1      131        0        0
    131  6.250E+01 0.000E+00 0.000E+00 0.000E+00 0.000E+00    1      132        0        0
    132  6.250E+01 0.000E+00 0.000E+00 0.000E+00 0.000E+00    1      133        0        0
    133  6.250E+01 0.000E+00 0.000E+00 0.000E+00 0.000E+00    1      134        0        0
    134  6.250E+01 0.000E+00 0.000E+00 0.000E+00 0.000E+00    1      135        0        0
    135  6.250E+01 0.000E+00 0.000E+00 0.000E+00 0.000E+00    1      136        0        0
    136  6.250E+01 0.000E+00 0.000E+00 0.000E+00 0.000E+00    1      137        0        0
    137  6.250E+01 0.000E+00 0.000E+00 0.000E+00 0.000E+00    1      138        0        0
    138  6.250E+01 0.000E+00 0.000E+00 0.000E+00 0.000E+00    1      139        0        0
    139  6.250E+01 0.000E+00 0.000E+00 0.000E+00 0.000E+00    1      140        0        0
    140  6.250E+01 0.000E+00 0.000E+00 0.000E+00 0.000E+00    1      141        0        0
    141  6.250E+01 0.000E+00 0.000E+00 0.000E+00 0.000E+00    1      142        0        0
    142  6.250E+01 0.000E+00 0.000E+00 0.000E+00 0.000E+00    1      143        0        0
    143  6.250E+01 0.000E+00 0.000E+00 0.000E+00 0.000E+00    1      144        0        0
    144  6.250E+01 0.000E+00 0.000E+00 0.000E+00 0.000E+00    1      145        0        0
    145  6.250E+01 0.000E+00 0.000E+00 0.000E+00 0.000E+00    1      146        0        0
    146  6.250E+01 0.000E+00 0.000E+00 0.000E+00 0.000E+00    1      147        0        0
    147  6.250E+01 0.000E+00 0.000E+00 0.000E+00 0.000E+00    1      148        0        0
    148  6.250E+01 0.000E+00 0.000E+00 0.000E+00 0.000E+00    1      149        0        0
    149  6.250E+01 0.000E+00 0.000E+00 0.000E+00 0.000E+00    1      150        0        0
    150  6.250E+01 0.000E+00 0.000E+00 0.000E+00 0.000E+00    1      151        0        0
    151  6.250E+01 0.000E+00 0.000E+00 0.000E+00 0.000E+00    1      152        0        0
    152  6.250E+01 0.000E+00 0.000E+00 0.000E+00 0.000E+00    1      153        0        0
    153  6.250E+01 0.000E+00 0.000E+00 0.000E+00 0.000E+00    1      154        0        0
    154  6.250E+01 0.000E+00 0.000E+00 0.000E+00 0.000E+00    1      155        0        0
    155  6.250E+01 0.000E+00 0.000E+00 0.000E+00 0.000E+00    1      156        0        0
    156  6.250E+01 0.000E+00 0.000E+00 0.000E+00 0.000E+00    1      157        0        0
    157  6.250E+01 0.000E+00 0.000E+00 0.000E+00 0.000E+00    1      158        0        0
    158  6.250E+01 0.000E+00 0.000E+00 0.000E+00 0.000E+00    1      159        0        0
    159  6.250E+01 0.000E+00 0.000E+00 0.000E+00 0.000E+00    1      160        0        0
    160  6.250E+01 0.000E+00 0.000E+00 0.000E+00 0.000E+00    1      161        0        0


         STREAMBED PROPERTIES AND STREAM DIMENSIONS

 SEGMENT     WIDTH OF STREAM     DEPTH OF STREAM    STREAM ROUGHNESS
    No.     UPPER     LOWER     UPPER     LOWER     CHANNEL      BANK

     1    5.000E+00 5.000E+00                      1.000E-01
     2    5.000E+00 5.000E+00                      1.000E-01
     3    5.000E+00 5.000E+00                      1.000E-01
     4    5.000E+00 5.000E+00                      1.000E-01
     5    5.000E+00 5.000E+00                      1.000E-01
     6    5.000E+00 5.000E+00                      1.000E-01
     7    5.000E+00 5.000E+00                      1.000E-01
     8    5.000E+00 5.000E+00                      1.000E-01
     9    5.000E+00 5.000E+00                      1.000E-01
    10    5.000E+00 5.000E+00                      1.000E-01
    11    5.000E+00 5.000E+00                      1.000E-01
    12    5.000E+00 5.000E+00                      1.000E-01
    13    5.000E+00 5.000E+00                      1.000E-01
    14    5.000E+00 5.000E+00                      1.000E-01
    15    5.000E+00 5.000E+00                      1.000E-01
    16    5.000E+00 5.000E+00                      1.000E-01
    17    5.000E+00 5.000E+00                      1.000E-01
    18    5.000E+00 5.000E+00                      1.000E-01
    19    5.000E+00 5.000E+00                      1.000E-01
    20    5.000E+00 5.000E+00                      1.000E-01
    21    5.000E+00 5.000E+00                      1.000E-01
    22    5.000E+00 5.000E+00                      1.000E-01
    23    5.000E+00 5.000E+00                      1.000E-01
    24    5.000E+00 5.000E+00                      1.000E-01
    25    5.000E+00 5.000E+00                      1.000E-01
    26    5.000E+00 5.000E+00                      1.000E-01
    27    5.000E+00 5.000E+00                      1.000E-01
    28    5.000E+00 5.000E+00                      1.000E-01
    29    5.000E+00 5.000E+00                      1.000E-01
    30    5.000E+00 5.000E+00                      1.000E-01
    31    5.000E+00 5.000E+00                      1.000E-01
    32    5.000E+00 5.000E+00                      1.000E-01
    33    5.000E+00 5.000E+00                      1.000E-01
    34    5.000E+00 5.000E+00                      1.000E-01
    35    5.000E+00 5.000E+00                      1.000E-01
    36    5.000E+00 5.000E+00                      1.000E-01
    37    5.000E+00 5.000E+00                      1.000E-01
    38    5.000E+00 5.000E+00                      1.000E-01
    39    5.000E+00 5.000E+00                      1.000E-01
    40    5.000E+00 5.000E+00                      1.000E-01
    41    5.000E+00 5.000E+00                      1.000E-01
    42    5.000E+00 5.000E+00                      1.000E-01
    43    5.000E+00 5.000E+00                      1.000E-01
    44    5.000E+00 5.000E+00                      1.000E-01
    45    5.000E+00 5.000E+00                      1.000E-01
    46    5.000E+00 5.000E+00                      1.000E-01
    47    5.000E+00 5.000E+00                      1.000E-01
    48    5.000E+00 5.000E+00                      1.000E-01
    49    5.000E+00 5.000E+00                      1.000E-01
    50    5.000E+00 5.000E+00                      1.000E-01
    51    5.000E+00 5.000E+00                      1.000E-01
    52    5.000E+00 5.000E+00                      1.000E-01
    53    5.000E+00 5.000E+00                      1.000E-01
    54    5.000E+00 5.000E+00                      1.000E-01
    55    5.000E+00 5.000E+00                      1.000E-01
    56    5.000E+00 5.000E+00                      1.000E-01
    57    5.000E+00 5.000E+00                      1.000E-01
    58    5.000E+00 5.000E+00                      1.000E-01
    59    5.000E+00 5.000E+00                      1.000E-01
    60    5.000E+00 5.000E+00                      1.000E-01
    61    5.000E+00 5.000E+00                      1.000E-01
    62    5.000E+00 5.000E+00                      1.000E-01
    63    5.000E+00 5.000E+00                      1.000E-01
    64    5.000E+00 5.000E+00                      1.000E-01
    65    5.000E+00 5.000E+00                      1.000E-01
    66    5.000E+00 5.000E+00                      1.000E-01
    67    5.000E+00 5.000E+00                      1.000E-01
    68    5.000E+00 5.000E+00                      1.000E-01
    69    5.000E+00 5.000E+00                      1.000E-01
    70    5.000E+00 5.000E+00                      1.000E-01
    71    5.000E+00 5.000E+00                      1.000E-01
    72    5.000E+00 5.000E+00                      1.000E-01
    73    5.000E+00 5.000E+00                      1.000E-01
    74    5.000E+00 5.000E+00                      1.000E-01
    75    5.000E+00 5.000E+00                      1.000E-01
    76    5.000E+00 5.000E+00                      1.000E-01
    77    5.000E+00 5.000E+00                      1.000E-01
    78    5.000E+00 5.000E+00                      1.000E-01
    79    5.000E+00 5.000E+00                      1.000E-01
    80    5.000E+00 5.000E+00                      1.000E-01
    81    5.000E+00 5.000E+00                      1.000E-01
    82    5.000E+00 5.000E+00                      1.000E-01
    83    5.000E+00 5.000E+00                      1.000E-01
    84    5.000E+00 5.000E+00                      1.000E-01
    85    5.000E+00 5.000E+00                      1.000E-01
    86    5.000E+00 5.000E+00                      1.000E-01
    87    5.000E+00 5.000E+00                      1.000E-01
    88    5.000E+00 5.000E+00                      1.000E-01
    89    5.000E+00 5.000E+00                      1.000E-01
    90    5.000E+00 5.000E+00                      1.000E-01
    91    5.000E+00 5.000E+00                      1.000E-01
    92    5.000E+00 5.000E+00                      1.000E-01
    93    5.000E+00 5.000E+00                      1.000E-01
    94    5.000E+00 5.000E+00                      1.000E-01
    95    5.000E+00 5.000E+00                      1.000E-01
    96    5.000E+00 5.000E+00                      1.000E-01
    97    5.000E+00 5.000E+00                      1.000E-01
    98    5.000E+00 5.000E+00                      1.000E-01
    99    5.000E+00 5.000E+00                      1.000E-01
   100    5.000E+00 5.000E+00                      1.000E-01
   101    5.000E+00 5.000E+00                      1.000E-01
   102    5.000E+00 5.000E+00                      1.000E-01
   103    5.000E+00 5.000E+00                      1.000E-01
   104    5.000E+00 5.000E+00                      1.000E-01
   105    5.000E+00 5.000E+00                      1.000E-01
   106    5.000E+00 5.000E+00                      1.000E-01
   107    5.000E+00 5.000E+00                      1.000E-01
   108    5.000E+00 5.000E+00                      1.000E-01
   109    5.000E+00 5.000E+00                      1.000E-01
   110    5.000E+00 5.000E+00                      1.000E-01
   111    5.000E+00 5.000E+00                      1.000E-01
   112    5.000E+00 5.000E+00                      1.000E-01
   113    5.000E+00 5.000E+00                      1.000E-01
   114    5.000E+00 5.000E+00                      1.000E-01
   115    5.000E+00 5.000E+00                      1.000E-01
   116    5.000E+00 5.000E+00                      1.000E-01
   117    5.000E+00 5.000E+00                      1.000E-01
   118    5.000E+00 5.000E+00                      1.000E-01
   119    5.000E+00 5.000E+00                      1.000E-01
   120    5.000E+00 5.000E+00                      1.000E-01
   121    5.000E+00 5.000E+00                      1.000E-01
   122    5.000E+00 5.000E+00                      1.000E-01
   123    5.000E+00 5.000E+00                      1.000E-01
   124    5.000E+00 5.000E+00                      1.000E-01
   125    5.000E+00 5.000E+00                      1.000E-01
   126    5.000E+00 5.000E+00                      1.000E-01
   127    5.000E+00 5.000E+00                      1.000E-01
   128    5.000E+00 5.000E+00                      1.000E-01
   129    5.000E+00 5.000E+00                      1.000E-01
   130    5.000E+00 5.000E+00                      1.000E-01
   131    5.000E+00 5.000E+00                      1.000E-01
   132    5.000E+00 5.000E+00                      1.000E-01
   133    5.000E+00 5.000E+00                      1.000E-01
   134    5.000E+00 5.000E+00                      1.000E-01
   135    5.000E+00 5.000E+00                      1.000E-01
   136    5.000E+00 5.000E+00                      1.000E-01
   137    5.000E+00 5.000E+00                      1.000E-01
   138    5.000E+00 5.000E+00                      1.000E-01
   139    5.000E+00 5.000E+00                      1.000E-01
   140    5.000E+00 5.000E+00                      1.000E-01
   141    5.000E+00 5.000E+00                      1.000E-01
   142    5.000E+00 5.000E+00                      1.000E-01
   143    5.000E+00 5.000E+00                      1.000E-01
   144    5.000E+00 5.000E+00                      1.000E-01
   145    5.000E+00 5.000E+00                      1.000E-01
   146    5.000E+00 5.000E+00                      1.000E-01
   147    5.000E+00 5.000E+00                      1.000E-01
   148    5.000E+00 5.000E+00                      1.000E-01
   149    5.000E+00 5.000E+00                      1.000E-01
   150    5.000E+00 5.000E+00                      1.000E-01
   151    5.000E+00 5.000E+00                      1.000E-01
   152    5.000E+00 5.000E+00                      1.000E-01
   153    5.000E+00 5.000E+00                      1.000E-01
   154    5.000E+00 5.000E+00                      1.000E-01
   155    5.000E+00 5.000E+00                      1.000E-01
   156    5.000E+00 5.000E+00                      1.000E-01
   157    5.000E+00 5.000E+00                      1.000E-01
   158    5.000E+00 5.000E+00                      1.000E-01
   159    5.000E+00 5.000E+00                      1.000E-01
   160    5.000E+00 5.000E+00                      1.000E-01



 
 SOLVING FOR HEAD 


 OUTER ITERATION SUMMARY
 -----------------------
 BT: Backtracking; LA: Linear Acceleration; UR: Under-relaxation

    Outer-Iteration  Inner-Iteration    Maximum Head Change  Maximum Head Change
        Number           Count               Value              Location
LA         1                7               0.20340                  4092           GWF-node number
LA         2                4               0.44041E-02              1321           GWF-node number
LA         3                2               0.16688E-03              1425           GWF-node number
LA         4                1               0.87424E-05              4428           GWF-node number


     4 CALLS TO SPARSE MATRIX SOLVER PACKAGE  IN FLOW TIME STEP   1 STRESS PERIOD  15

 TOTAL OF       4OUTER ITERATIONS
  MAXIMUM CHANGE FOR EACH ITERATION:
   MAX. CHANGE        NODE  MAX. CHANGE        NODE  MAX. CHANGE        NODE  MAX. CHANGE        NODE  MAX. CHANGE        NODE
 ------------------------------------------------------------------------------------------------------------------------------------
   0.20340    ,       4092  0.44041E-02,       1321  0.16688E-03,       1425  0.87424E-05,       4428

 OUTPUT CONTROL FOR STRESS PERIOD       15   TIME STEP        1
    SAVE HEAD FOR ALL LAYERS
    SAVE BUDGET
 UBDSV1U SAVING "         STORAGE" ON UNIT  50 AT TIME STEP      1, STRESS PERIOD     15
 UBDSV2U SAVING "   CONSTANT HEAD" ON UNIT  50 AT TIME STEP      1, STRESS PERIOD     15
 UBDSV1U SAVING "   FLOW JA FACE " ON UNIT  50 AT TIME STEP      1, STRESS PERIOD     15
 UBDSV4U SAVING "           WELLS" ON UNIT  50 AT TIME STEP      1, STRESS PERIOD     15
 UBDSV4U SAVING " HEAD DEP BOUNDS" ON UNIT  50 AT TIME STEP      1, STRESS PERIOD     15
 UBDSV3U SAVING "        RECHARGE" ON UNIT  50 AT TIME STEP      1, STRESS PERIOD     15
 UBDSV2U SAVING "  STREAM LEAKAGE" ON UNIT  50 AT TIME STEP      1, STRESS PERIOD     15




 HEAD WILL BE SAVED ON UNIT   51 AT END OF TIME STEP   1, STRESS PERIOD   15
1
  VOLUMETRIC BUDGET FOR ENTIRE MODEL AT END OF TIME STEP       1 IN STRESS PERIOD      15
  ---------------------------------------------------------------------------------------

     CUMULATIVE VOLUMES      L**3       RATES FOR THIS TIME STEP      L**3/T
     ------------------                 ------------------------

           IN:                                      IN:
           ---                                      ---
             STORAGE =      342724.0954               STORAGE =           0.0000
       CONSTANT HEAD =           0.0000         CONSTANT HEAD =           0.0000
               WELLS =           0.0000                 WELLS =           0.0000
     HEAD DEP BOUNDS =      151842.1851       HEAD DEP BOUNDS =         195.0510
            RECHARGE =     1216148.0698              RECHARGE =        4219.6626
      STREAM LEAKAGE =       81663.4636        STREAM LEAKAGE =          17.5855

            TOTAL IN =     1792377.8139              TOTAL IN =        4432.2991

          OUT:                                     OUT:
          ----                                     ----
             STORAGE =      454555.4079               STORAGE =        2310.2155
       CONSTANT HEAD =           0.0000         CONSTANT HEAD =           0.0000
               WELLS =      934493.1734                 WELLS =         796.6891
     HEAD DEP BOUNDS =      218159.2910       HEAD DEP BOUNDS =         748.8600
            RECHARGE =           0.0000              RECHARGE =           0.0000
      STREAM LEAKAGE =      185170.9611        STREAM LEAKAGE =         576.5287

           TOTAL OUT =     1792378.8333             TOTAL OUT =        4432.2934

            IN - OUT =          -1.0195              IN - OUT =       5.6921E-03

 PERCENT DISCREPANCY =          -0.00     PERCENT DISCREPANCY =           0.00






          TIME SUMMARY AT END OF TIME STEP         1 IN STRESS PERIOD        15
                    SECONDS     MINUTES      HOURS       DAYS        YEARS
                    -----------------------------------------------------------
   TIME STEP LENGTH 2.41920E+06  40320.      672.00      28.000     7.66598E-02
 STRESS PERIOD TIME 2.41920E+06  40320.      672.00      28.000     7.66598E-02
         TOTAL TIME 3.68064E+07 6.13440E+05  10224.      426.00      1.1663    
1
1
                            STRESS PERIOD NO.   16, LENGTH =   31.00000    
                            -----------------------------------------------

                              NUMBER OF TIME STEPS =     1

                               MULTIPLIER FOR DELT =     1.000

                            INITIAL TIME STEP SIZE =   31.00000    

 WEL -- WELL PACKAGE, VERSION 7, 5/2/2005 INPUT READ FROM UNIT   20

 WELL NO.      NODE       STRESS FACTOR         
 -----------------------------------------------
      1        3324      -182.2    
      2        3409      -182.2    
      3        3737      -182.2    
      4        3971      -182.2    
      5        4092      -182.2    
      6        4297      -182.2    

      6 WELLS

 GHB -- GENERAL-HEAD BOUNDARY PACKAGE, VERSION 7, 5/2/2005
         INPUT READ FROM UNIT   30

 BOUND NO.     NODE         STAGE         CONDUCTANCE         
 -------------------------------------------------------------
      1        1473       33.50           70.00    
      2        1474       33.50           70.00    
      3        1475       33.50           70.00    
      4        1476       33.50           70.00    
      5        1477       33.50           70.00    
      6        1478       33.50           70.00    
      7        1479       33.50           70.00    
      8        1480       33.50           70.00    
      9        1481       33.50           70.00    
     10        1482       33.50           70.00    
     11        2972       33.50           70.00    
     12        2973       33.50           70.00    
     13        2974       33.50           70.00    
     14        2975       33.50           70.00    
     15        2976       33.50           70.00    
     16        2977       33.50           70.00    
     17        2978       33.50           70.00    
     18        2979       33.50           70.00    
     19        2980       33.50           70.00    
     20        2981       33.50           70.00    
     21        4471       33.50           70.00    
     22        4472       33.50           70.00    
     23        4473       33.50           70.00    
     24        4474       33.50           70.00    
     25        4475       33.50           70.00    
     26        4476       33.50           70.00    
     27        4477       33.50           70.00    
     28        4478       33.50           70.00    
     29        4479       33.50           70.00    
     30        4480       33.50           70.00    
     31        2999       35.50           70.00    
     32        3000       35.50           70.00    
     33        3001       35.50           70.00    
     34        3002       35.50           70.00    
     35        3003       35.50           70.00    
     36        3004       35.50           70.00    
     37        3005       35.50           70.00    
     38        3006       35.50           70.00    
     39        3007       35.50           70.00    
     40        3008       35.50           70.00    
     41        3009       35.50           70.00    
     42        3010       35.50           70.00    
     43        3011       35.50           70.00    
     44        3012       35.50           70.00    
     45        3013       35.50           70.00    
     46        3023       35.50           4.375    
     47        3027       35.50           17.50    
     48        3028       35.50           70.00    
     49        3029       35.50           70.00    
     50        3030       35.50           70.00    

     50 GHB CELLS

 RCH -- RECHARGE PACKAGE, VERSION 7, 5/2/2005 INPUT READ FROM UNIT   31



                           RECHARGE
 READING ON UNIT   31 WITH FORMAT: (1499E15.6)         



 CLASSIFICATION & COUNT OF STREAM SEGMENTS BASED ON SOURCE OF INFLOW:

                HEADWATER     DIVERSION     RECEIVES TRIBUTARY FLOW
                ---------     ---------     -----------------------
                     1              0             159



                    INPUT DATA FOR EACH STREAM SEGMENT
 ---------------------------------------------------------------------------------------------

 SEGMENT    SEG.     INFLOW   OVERLAND   STREAM    STREAM   ICALC  OUTFLOW  DIVERSION PRIORITY
    NO.    LENGTH     RATE     RUNOFF      ET       PPT.    METH.  TO SEG.  FROM SEG.    NO.

      1  6.250E+01 1.455E+04 0.000E+00 0.000E+00 0.000E+00    1        2        0        0
      2  6.250E+01 0.000E+00 0.000E+00 0.000E+00 0.000E+00    1        3        0        0
      3  6.250E+01 0.000E+00 0.000E+00 0.000E+00 0.000E+00    1        4        0        0
      4  6.250E+01 0.000E+00 0.000E+00 0.000E+00 0.000E+00    1        5        0        0
      5  6.250E+01 0.000E+00 0.000E+00 0.000E+00 0.000E+00    1        6        0        0
      6  6.250E+01 0.000E+00 0.000E+00 0.000E+00 0.000E+00    1        7        0        0
      7  6.250E+01 0.000E+00 0.000E+00 0.000E+00 0.000E+00    1        8        0        0
      8  6.250E+01 0.000E+00 0.000E+00 0.000E+00 0.000E+00    1        9        0        0
      9  6.250E+01 0.000E+00 0.000E+00 0.000E+00 0.000E+00    1       10        0        0
     10  6.250E+01 0.000E+00 0.000E+00 0.000E+00 0.000E+00    1       11        0        0
     11  6.250E+01 0.000E+00 0.000E+00 0.000E+00 0.000E+00    1       12        0        0
     12  6.250E+01 0.000E+00 0.000E+00 0.000E+00 0.000E+00    1       13        0        0
     13  6.250E+01 0.000E+00 0.000E+00 0.000E+00 0.000E+00    1       14        0        0
     14  6.250E+01 0.000E+00 0.000E+00 0.000E+00 0.000E+00    1       15        0        0
     15  6.250E+01 0.000E+00 0.000E+00 0.000E+00 0.000E+00    1       16        0        0
     16  6.250E+01 0.000E+00 0.000E+00 0.000E+00 0.000E+00    1       17        0        0
     17  6.250E+01 0.000E+00 0.000E+00 0.000E+00 0.000E+00    1       18        0        0
     18  6.250E+01 0.000E+00 0.000E+00 0.000E+00 0.000E+00    1       19        0        0
     19  6.250E+01 0.000E+00 0.000E+00 0.000E+00 0.000E+00    1       20        0        0
     20  6.250E+01 0.000E+00 0.000E+00 0.000E+00 0.000E+00    1       21        0        0
     21  6.250E+01 0.000E+00 0.000E+00 0.000E+00 0.000E+00    1       22        0        0
     22  6.250E+01 0.000E+00 0.000E+00 0.000E+00 0.000E+00    1       23        0        0
     23  6.250E+01 0.000E+00 0.000E+00 0.000E+00 0.000E+00    1       24        0        0
     24  6.250E+01 0.000E+00 0.000E+00 0.000E+00 0.000E+00    1       25        0        0
     25  6.250E+01 0.000E+00 0.000E+00 0.000E+00 0.000E+00    1       26        0        0
     26  6.250E+01 0.000E+00 0.000E+00 0.000E+00 0.000E+00    1       27        0        0
     27  6.250E+01 0.000E+00 0.000E+00 0.000E+00 0.000E+00    1       28        0        0
     28  6.250E+01 0.000E+00 0.000E+00 0.000E+00 0.000E+00    1       29        0        0
     29  6.250E+01 0.000E+00 0.000E+00 0.000E+00 0.000E+00    1       30        0        0
     30  6.250E+01 0.000E+00 0.000E+00 0.000E+00 0.000E+00    1       31        0        0
     31  6.250E+01 0.000E+00 0.000E+00 0.000E+00 0.000E+00    1       32        0        0
     32  6.250E+01 0.000E+00 0.000E+00 0.000E+00 0.000E+00    1       33        0        0
     33  6.250E+01 0.000E+00 0.000E+00 0.000E+00 0.000E+00    1       34        0        0
     34  6.250E+01 0.000E+00 0.000E+00 0.000E+00 0.000E+00    1       35        0        0
     35  6.250E+01 0.000E+00 0.000E+00 0.000E+00 0.000E+00    1       36        0        0
     36  6.250E+01 0.000E+00 0.000E+00 0.000E+00 0.000E+00    1       37        0        0
     37  6.250E+01 0.000E+00 0.000E+00 0.000E+00 0.000E+00    1       38        0        0
     38  6.250E+01 0.000E+00 0.000E+00 0.000E+00 0.000E+00    1       39        0        0
     39  6.250E+01 0.000E+00 0.000E+00 0.000E+00 0.000E+00    1       40        0        0
     40  6.250E+01 0.000E+00 0.000E+00 0.000E+00 0.000E+00    1       41        0        0
     41  6.250E+01 0.000E+00 0.000E+00 0.000E+00 0.000E+00    1       42        0        0
     42  6.250E+01 0.000E+00 0.000E+00 0.000E+00 0.000E+00    1       43        0        0
     43  6.250E+01 0.000E+00 0.000E+00 0.000E+00 0.000E+00    1       44        0        0
     44  6.250E+01 0.000E+00 0.000E+00 0.000E+00 0.000E+00    1       45        0        0
     45  6.250E+01 0.000E+00 0.000E+00 0.000E+00 0.000E+00    1       46        0        0
     46  6.250E+01 0.000E+00 0.000E+00 0.000E+00 0.000E+00    1       47        0        0
     47  6.250E+01 0.000E+00 0.000E+00 0.000E+00 0.000E+00    1       48        0        0
     48  6.250E+01 0.000E+00 0.000E+00 0.000E+00 0.000E+00    1       49        0        0
     49  6.250E+01 0.000E+00 0.000E+00 0.000E+00 0.000E+00    1       50        0        0
     50  6.250E+01 0.000E+00 0.000E+00 0.000E+00 0.000E+00    1       51        0        0
     51  6.250E+01 0.000E+00 0.000E+00 0.000E+00 0.000E+00    1       52        0        0
     52  6.250E+01 0.000E+00 0.000E+00 0.000E+00 0.000E+00    1       53        0        0
     53  6.250E+01 0.000E+00 0.000E+00 0.000E+00 0.000E+00    1       54        0        0
     54  6.250E+01 0.000E+00 0.000E+00 0.000E+00 0.000E+00    1       55        0        0
     55  6.250E+01 0.000E+00 0.000E+00 0.000E+00 0.000E+00    1       56        0        0
     56  6.250E+01 0.000E+00 0.000E+00 0.000E+00 0.000E+00    1       57        0        0
     57  6.250E+01 0.000E+00 0.000E+00 0.000E+00 0.000E+00    1       58        0        0
     58  6.250E+01 0.000E+00 0.000E+00 0.000E+00 0.000E+00    1       59        0        0
     59  6.250E+01 0.000E+00 0.000E+00 0.000E+00 0.000E+00    1       60        0        0
     60  6.250E+01 0.000E+00 0.000E+00 0.000E+00 0.000E+00    1       61        0        0
     61  6.250E+01 0.000E+00 0.000E+00 0.000E+00 0.000E+00    1       62        0        0
     62  6.250E+01 0.000E+00 0.000E+00 0.000E+00 0.000E+00    1       63        0        0
     63  6.250E+01 0.000E+00 0.000E+00 0.000E+00 0.000E+00    1       64        0        0
     64  6.250E+01 0.000E+00 0.000E+00 0.000E+00 0.000E+00    1       65        0        0
     65  6.250E+01 0.000E+00 0.000E+00 0.000E+00 0.000E+00    1       66        0        0
     66  6.250E+01 0.000E+00 0.000E+00 0.000E+00 0.000E+00    1       67        0        0
     67  6.250E+01 0.000E+00 0.000E+00 0.000E+00 0.000E+00    1       68        0        0
     68  6.250E+01 0.000E+00 0.000E+00 0.000E+00 0.000E+00    1       69        0        0
     69  6.250E+01 0.000E+00 0.000E+00 0.000E+00 0.000E+00    1       70        0        0
     70  6.250E+01 0.000E+00 0.000E+00 0.000E+00 0.000E+00    1       71        0        0
     71  6.250E+01 0.000E+00 0.000E+00 0.000E+00 0.000E+00    1       72        0        0
     72  6.250E+01 0.000E+00 0.000E+00 0.000E+00 0.000E+00    1       73        0        0
     73  6.250E+01 0.000E+00 0.000E+00 0.000E+00 0.000E+00    1       74        0        0
     74  6.250E+01 0.000E+00 0.000E+00 0.000E+00 0.000E+00    1       75        0        0
     75  6.250E+01 0.000E+00 0.000E+00 0.000E+00 0.000E+00    1       76        0        0
     76  6.250E+01 0.000E+00 0.000E+00 0.000E+00 0.000E+00    1       77        0        0
     77  6.250E+01 0.000E+00 0.000E+00 0.000E+00 0.000E+00    1       78        0        0
     78  6.250E+01 0.000E+00 0.000E+00 0.000E+00 0.000E+00    1       79        0        0
     79  6.250E+01 0.000E+00 0.000E+00 0.000E+00 0.000E+00    1       80        0        0
     80  6.250E+01 0.000E+00 0.000E+00 0.000E+00 0.000E+00    1       81        0        0
     81  6.250E+01 0.000E+00 0.000E+00 0.000E+00 0.000E+00    1       82        0        0
     82  6.250E+01 0.000E+00 0.000E+00 0.000E+00 0.000E+00    1       83        0        0
     83  6.250E+01 0.000E+00 0.000E+00 0.000E+00 0.000E+00    1       84        0        0
     84  6.250E+01 0.000E+00 0.000E+00 0.000E+00 0.000E+00    1       85        0        0
     85  6.250E+01 0.000E+00 0.000E+00 0.000E+00 0.000E+00    1       86        0        0
     86  6.250E+01 0.000E+00 0.000E+00 0.000E+00 0.000E+00    1       87        0        0
     87  6.250E+01 0.000E+00 0.000E+00 0.000E+00 0.000E+00    1       88        0        0
     88  6.250E+01 0.000E+00 0.000E+00 0.000E+00 0.000E+00    1       89        0        0
     89  6.250E+01 0.000E+00 0.000E+00 0.000E+00 0.000E+00    1       90        0        0
     90  6.250E+01 0.000E+00 0.000E+00 0.000E+00 0.000E+00    1       91        0        0
     91  6.250E+01 0.000E+00 0.000E+00 0.000E+00 0.000E+00    1       92        0        0
     92  6.250E+01 0.000E+00 0.000E+00 0.000E+00 0.000E+00    1       93        0        0
     93  6.250E+01 0.000E+00 0.000E+00 0.000E+00 0.000E+00    1       94        0        0
     94  6.250E+01 0.000E+00 0.000E+00 0.000E+00 0.000E+00    1       95        0        0
     95  6.250E+01 0.000E+00 0.000E+00 0.000E+00 0.000E+00    1       96        0        0
     96  6.250E+01 0.000E+00 0.000E+00 0.000E+00 0.000E+00    1       97        0        0
     97  6.250E+01 0.000E+00 0.000E+00 0.000E+00 0.000E+00    1       98        0        0
     98  6.250E+01 0.000E+00 0.000E+00 0.000E+00 0.000E+00    1       99        0        0
     99  6.250E+01 0.000E+00 0.000E+00 0.000E+00 0.000E+00    1      100        0        0
    100  6.250E+01 0.000E+00 0.000E+00 0.000E+00 0.000E+00    1      101        0        0
    101  6.250E+01 0.000E+00 0.000E+00 0.000E+00 0.000E+00    1      102        0        0
    102  6.250E+01 0.000E+00 0.000E+00 0.000E+00 0.000E+00    1      103        0        0
    103  6.250E+01 0.000E+00 0.000E+00 0.000E+00 0.000E+00    1      104        0        0
    104  6.250E+01 0.000E+00 0.000E+00 0.000E+00 0.000E+00    1      105        0        0
    105  6.250E+01 0.000E+00 0.000E+00 0.000E+00 0.000E+00    1      106        0        0
    106  6.250E+01 0.000E+00 0.000E+00 0.000E+00 0.000E+00    1      107        0        0
    107  6.250E+01 0.000E+00 0.000E+00 0.000E+00 0.000E+00    1      108        0        0
    108  6.250E+01 0.000E+00 0.000E+00 0.000E+00 0.000E+00    1      109        0        0
    109  6.250E+01 0.000E+00 0.000E+00 0.000E+00 0.000E+00    1      110        0        0
    110  6.250E+01 0.000E+00 0.000E+00 0.000E+00 0.000E+00    1      111        0        0
    111  6.250E+01 0.000E+00 0.000E+00 0.000E+00 0.000E+00    1      112        0        0
    112  6.250E+01 0.000E+00 0.000E+00 0.000E+00 0.000E+00    1      113        0        0
    113  6.250E+01 0.000E+00 0.000E+00 0.000E+00 0.000E+00    1      114        0        0
    114  6.250E+01 0.000E+00 0.000E+00 0.000E+00 0.000E+00    1      115        0        0
    115  6.250E+01 0.000E+00 0.000E+00 0.000E+00 0.000E+00    1      116        0        0
    116  6.250E+01 0.000E+00 0.000E+00 0.000E+00 0.000E+00    1      117        0        0
    117  6.250E+01 0.000E+00 0.000E+00 0.000E+00 0.000E+00    1      118        0        0
    118  6.250E+01 0.000E+00 0.000E+00 0.000E+00 0.000E+00    1      119        0        0
    119  6.250E+01 0.000E+00 0.000E+00 0.000E+00 0.000E+00    1      120        0        0
    120  6.250E+01 0.000E+00 0.000E+00 0.000E+00 0.000E+00    1      121        0        0
    121  6.250E+01 0.000E+00 0.000E+00 0.000E+00 0.000E+00    1      122        0        0
    122  6.250E+01 0.000E+00 0.000E+00 0.000E+00 0.000E+00    1      123        0        0
    123  6.250E+01 0.000E+00 0.000E+00 0.000E+00 0.000E+00    1      124        0        0
    124  6.250E+01 0.000E+00 0.000E+00 0.000E+00 0.000E+00    1      125        0        0
    125  6.250E+01 0.000E+00 0.000E+00 0.000E+00 0.000E+00    1      126        0        0
    126  6.250E+01 0.000E+00 0.000E+00 0.000E+00 0.000E+00    1      127        0        0
    127  6.250E+01 0.000E+00 0.000E+00 0.000E+00 0.000E+00    1      128        0        0
    128  6.250E+01 0.000E+00 0.000E+00 0.000E+00 0.000E+00    1      129        0        0
    129  6.250E+01 0.000E+00 0.000E+00 0.000E+00 0.000E+00    1      130        0        0
    130  6.250E+01 0.000E+00 0.000E+00 0.000E+00 0.000E+00    1      131        0        0
    131  6.250E+01 0.000E+00 0.000E+00 0.000E+00 0.000E+00    1      132        0        0
    132  6.250E+01 0.000E+00 0.000E+00 0.000E+00 0.000E+00    1      133        0        0
    133  6.250E+01 0.000E+00 0.000E+00 0.000E+00 0.000E+00    1      134        0        0
    134  6.250E+01 0.000E+00 0.000E+00 0.000E+00 0.000E+00    1      135        0        0
    135  6.250E+01 0.000E+00 0.000E+00 0.000E+00 0.000E+00    1      136        0        0
    136  6.250E+01 0.000E+00 0.000E+00 0.000E+00 0.000E+00    1      137        0        0
    137  6.250E+01 0.000E+00 0.000E+00 0.000E+00 0.000E+00    1      138        0        0
    138  6.250E+01 0.000E+00 0.000E+00 0.000E+00 0.000E+00    1      139        0        0
    139  6.250E+01 0.000E+00 0.000E+00 0.000E+00 0.000E+00    1      140        0        0
    140  6.250E+01 0.000E+00 0.000E+00 0.000E+00 0.000E+00    1      141        0        0
    141  6.250E+01 0.000E+00 0.000E+00 0.000E+00 0.000E+00    1      142        0        0
    142  6.250E+01 0.000E+00 0.000E+00 0.000E+00 0.000E+00    1      143        0        0
    143  6.250E+01 0.000E+00 0.000E+00 0.000E+00 0.000E+00    1      144        0        0
    144  6.250E+01 0.000E+00 0.000E+00 0.000E+00 0.000E+00    1      145        0        0
    145  6.250E+01 0.000E+00 0.000E+00 0.000E+00 0.000E+00    1      146        0        0
    146  6.250E+01 0.000E+00 0.000E+00 0.000E+00 0.000E+00    1      147        0        0
    147  6.250E+01 0.000E+00 0.000E+00 0.000E+00 0.000E+00    1      148        0        0
    148  6.250E+01 0.000E+00 0.000E+00 0.000E+00 0.000E+00    1      149        0        0
    149  6.250E+01 0.000E+00 0.000E+00 0.000E+00 0.000E+00    1      150        0        0
    150  6.250E+01 0.000E+00 0.000E+00 0.000E+00 0.000E+00    1      151        0        0
    151  6.250E+01 0.000E+00 0.000E+00 0.000E+00 0.000E+00    1      152        0        0
    152  6.250E+01 0.000E+00 0.000E+00 0.000E+00 0.000E+00    1      153        0        0
    153  6.250E+01 0.000E+00 0.000E+00 0.000E+00 0.000E+00    1      154        0        0
    154  6.250E+01 0.000E+00 0.000E+00 0.000E+00 0.000E+00    1      155        0        0
    155  6.250E+01 0.000E+00 0.000E+00 0.000E+00 0.000E+00    1      156        0        0
    156  6.250E+01 0.000E+00 0.000E+00 0.000E+00 0.000E+00    1      157        0        0
    157  6.250E+01 0.000E+00 0.000E+00 0.000E+00 0.000E+00    1      158        0        0
    158  6.250E+01 0.000E+00 0.000E+00 0.000E+00 0.000E+00    1      159        0        0
    159  6.250E+01 0.000E+00 0.000E+00 0.000E+00 0.000E+00    1      160        0        0
    160  6.250E+01 0.000E+00 0.000E+00 0.000E+00 0.000E+00    1      161        0        0


         STREAMBED PROPERTIES AND STREAM DIMENSIONS

 SEGMENT     WIDTH OF STREAM     DEPTH OF STREAM    STREAM ROUGHNESS
    No.     UPPER     LOWER     UPPER     LOWER     CHANNEL      BANK

     1    5.000E+00 5.000E+00                      1.000E-01
     2    5.000E+00 5.000E+00                      1.000E-01
     3    5.000E+00 5.000E+00                      1.000E-01
     4    5.000E+00 5.000E+00                      1.000E-01
     5    5.000E+00 5.000E+00                      1.000E-01
     6    5.000E+00 5.000E+00                      1.000E-01
     7    5.000E+00 5.000E+00                      1.000E-01
     8    5.000E+00 5.000E+00                      1.000E-01
     9    5.000E+00 5.000E+00                      1.000E-01
    10    5.000E+00 5.000E+00                      1.000E-01
    11    5.000E+00 5.000E+00                      1.000E-01
    12    5.000E+00 5.000E+00                      1.000E-01
    13    5.000E+00 5.000E+00                      1.000E-01
    14    5.000E+00 5.000E+00                      1.000E-01
    15    5.000E+00 5.000E+00                      1.000E-01
    16    5.000E+00 5.000E+00                      1.000E-01
    17    5.000E+00 5.000E+00                      1.000E-01
    18    5.000E+00 5.000E+00                      1.000E-01
    19    5.000E+00 5.000E+00                      1.000E-01
    20    5.000E+00 5.000E+00                      1.000E-01
    21    5.000E+00 5.000E+00                      1.000E-01
    22    5.000E+00 5.000E+00                      1.000E-01
    23    5.000E+00 5.000E+00                      1.000E-01
    24    5.000E+00 5.000E+00                      1.000E-01
    25    5.000E+00 5.000E+00                      1.000E-01
    26    5.000E+00 5.000E+00                      1.000E-01
    27    5.000E+00 5.000E+00                      1.000E-01
    28    5.000E+00 5.000E+00                      1.000E-01
    29    5.000E+00 5.000E+00                      1.000E-01
    30    5.000E+00 5.000E+00                      1.000E-01
    31    5.000E+00 5.000E+00                      1.000E-01
    32    5.000E+00 5.000E+00                      1.000E-01
    33    5.000E+00 5.000E+00                      1.000E-01
    34    5.000E+00 5.000E+00                      1.000E-01
    35    5.000E+00 5.000E+00                      1.000E-01
    36    5.000E+00 5.000E+00                      1.000E-01
    37    5.000E+00 5.000E+00                      1.000E-01
    38    5.000E+00 5.000E+00                      1.000E-01
    39    5.000E+00 5.000E+00                      1.000E-01
    40    5.000E+00 5.000E+00                      1.000E-01
    41    5.000E+00 5.000E+00                      1.000E-01
    42    5.000E+00 5.000E+00                      1.000E-01
    43    5.000E+00 5.000E+00                      1.000E-01
    44    5.000E+00 5.000E+00                      1.000E-01
    45    5.000E+00 5.000E+00                      1.000E-01
    46    5.000E+00 5.000E+00                      1.000E-01
    47    5.000E+00 5.000E+00                      1.000E-01
    48    5.000E+00 5.000E+00                      1.000E-01
    49    5.000E+00 5.000E+00                      1.000E-01
    50    5.000E+00 5.000E+00                      1.000E-01
    51    5.000E+00 5.000E+00                      1.000E-01
    52    5.000E+00 5.000E+00                      1.000E-01
    53    5.000E+00 5.000E+00                      1.000E-01
    54    5.000E+00 5.000E+00                      1.000E-01
    55    5.000E+00 5.000E+00                      1.000E-01
    56    5.000E+00 5.000E+00                      1.000E-01
    57    5.000E+00 5.000E+00                      1.000E-01
    58    5.000E+00 5.000E+00                      1.000E-01
    59    5.000E+00 5.000E+00                      1.000E-01
    60    5.000E+00 5.000E+00                      1.000E-01
    61    5.000E+00 5.000E+00                      1.000E-01
    62    5.000E+00 5.000E+00                      1.000E-01
    63    5.000E+00 5.000E+00                      1.000E-01
    64    5.000E+00 5.000E+00                      1.000E-01
    65    5.000E+00 5.000E+00                      1.000E-01
    66    5.000E+00 5.000E+00                      1.000E-01
    67    5.000E+00 5.000E+00                      1.000E-01
    68    5.000E+00 5.000E+00                      1.000E-01
    69    5.000E+00 5.000E+00                      1.000E-01
    70    5.000E+00 5.000E+00                      1.000E-01
    71    5.000E+00 5.000E+00                      1.000E-01
    72    5.000E+00 5.000E+00                      1.000E-01
    73    5.000E+00 5.000E+00                      1.000E-01
    74    5.000E+00 5.000E+00                      1.000E-01
    75    5.000E+00 5.000E+00                      1.000E-01
    76    5.000E+00 5.000E+00                      1.000E-01
    77    5.000E+00 5.000E+00                      1.000E-01
    78    5.000E+00 5.000E+00                      1.000E-01
    79    5.000E+00 5.000E+00                      1.000E-01
    80    5.000E+00 5.000E+00                      1.000E-01
    81    5.000E+00 5.000E+00                      1.000E-01
    82    5.000E+00 5.000E+00                      1.000E-01
    83    5.000E+00 5.000E+00                      1.000E-01
    84    5.000E+00 5.000E+00                      1.000E-01
    85    5.000E+00 5.000E+00                      1.000E-01
    86    5.000E+00 5.000E+00                      1.000E-01
    87    5.000E+00 5.000E+00                      1.000E-01
    88    5.000E+00 5.000E+00                      1.000E-01
    89    5.000E+00 5.000E+00                      1.000E-01
    90    5.000E+00 5.000E+00                      1.000E-01
    91    5.000E+00 5.000E+00                      1.000E-01
    92    5.000E+00 5.000E+00                      1.000E-01
    93    5.000E+00 5.000E+00                      1.000E-01
    94    5.000E+00 5.000E+00                      1.000E-01
    95    5.000E+00 5.000E+00                      1.000E-01
    96    5.000E+00 5.000E+00                      1.000E-01
    97    5.000E+00 5.000E+00                      1.000E-01
    98    5.000E+00 5.000E+00                      1.000E-01
    99    5.000E+00 5.000E+00                      1.000E-01
   100    5.000E+00 5.000E+00                      1.000E-01
   101    5.000E+00 5.000E+00                      1.000E-01
   102    5.000E+00 5.000E+00                      1.000E-01
   103    5.000E+00 5.000E+00                      1.000E-01
   104    5.000E+00 5.000E+00                      1.000E-01
   105    5.000E+00 5.000E+00                      1.000E-01
   106    5.000E+00 5.000E+00                      1.000E-01
   107    5.000E+00 5.000E+00                      1.000E-01
   108    5.000E+00 5.000E+00                      1.000E-01
   109    5.000E+00 5.000E+00                      1.000E-01
   110    5.000E+00 5.000E+00                      1.000E-01
   111    5.000E+00 5.000E+00                      1.000E-01
   112    5.000E+00 5.000E+00                      1.000E-01
   113    5.000E+00 5.000E+00                      1.000E-01
   114    5.000E+00 5.000E+00                      1.000E-01
   115    5.000E+00 5.000E+00                      1.000E-01
   116    5.000E+00 5.000E+00                      1.000E-01
   117    5.000E+00 5.000E+00                      1.000E-01
   118    5.000E+00 5.000E+00                      1.000E-01
   119    5.000E+00 5.000E+00                      1.000E-01
   120    5.000E+00 5.000E+00                      1.000E-01
   121    5.000E+00 5.000E+00                      1.000E-01
   122    5.000E+00 5.000E+00                      1.000E-01
   123    5.000E+00 5.000E+00                      1.000E-01
   124    5.000E+00 5.000E+00                      1.000E-01
   125    5.000E+00 5.000E+00                      1.000E-01
   126    5.000E+00 5.000E+00                      1.000E-01
   127    5.000E+00 5.000E+00                      1.000E-01
   128    5.000E+00 5.000E+00                      1.000E-01
   129    5.000E+00 5.000E+00                      1.000E-01
   130    5.000E+00 5.000E+00                      1.000E-01
   131    5.000E+00 5.000E+00                      1.000E-01
   132    5.000E+00 5.000E+00                      1.000E-01
   133    5.000E+00 5.000E+00                      1.000E-01
   134    5.000E+00 5.000E+00                      1.000E-01
   135    5.000E+00 5.000E+00                      1.000E-01
   136    5.000E+00 5.000E+00                      1.000E-01
   137    5.000E+00 5.000E+00                      1.000E-01
   138    5.000E+00 5.000E+00                      1.000E-01
   139    5.000E+00 5.000E+00                      1.000E-01
   140    5.000E+00 5.000E+00                      1.000E-01
   141    5.000E+00 5.000E+00                      1.000E-01
   142    5.000E+00 5.000E+00                      1.000E-01
   143    5.000E+00 5.000E+00                      1.000E-01
   144    5.000E+00 5.000E+00                      1.000E-01
   145    5.000E+00 5.000E+00                      1.000E-01
   146    5.000E+00 5.000E+00                      1.000E-01
   147    5.000E+00 5.000E+00                      1.000E-01
   148    5.000E+00 5.000E+00                      1.000E-01
   149    5.000E+00 5.000E+00                      1.000E-01
   150    5.000E+00 5.000E+00                      1.000E-01
   151    5.000E+00 5.000E+00                      1.000E-01
   152    5.000E+00 5.000E+00                      1.000E-01
   153    5.000E+00 5.000E+00                      1.000E-01
   154    5.000E+00 5.000E+00                      1.000E-01
   155    5.000E+00 5.000E+00                      1.000E-01
   156    5.000E+00 5.000E+00                      1.000E-01
   157    5.000E+00 5.000E+00                      1.000E-01
   158    5.000E+00 5.000E+00                      1.000E-01
   159    5.000E+00 5.000E+00                      1.000E-01
   160    5.000E+00 5.000E+00                      1.000E-01



 
 SOLVING FOR HEAD 


 OUTER ITERATION SUMMARY
 -----------------------
 BT: Backtracking; LA: Linear Acceleration; UR: Under-relaxation

    Outer-Iteration  Inner-Iteration    Maximum Head Change  Maximum Head Change
        Number           Count               Value              Location
LA         1                6               0.13644                   807           GWF-node number
LA         2                3               0.15440E-02              1094           GWF-node number
LA         3                2               0.80088E-04              3742           GWF-node number


     3 CALLS TO SPARSE MATRIX SOLVER PACKAGE  IN FLOW TIME STEP   1 STRESS PERIOD  16

 TOTAL OF       3OUTER ITERATIONS
  MAXIMUM CHANGE FOR EACH ITERATION:
   MAX. CHANGE        NODE  MAX. CHANGE        NODE  MAX. CHANGE        NODE  MAX. CHANGE        NODE  MAX. CHANGE        NODE
 ------------------------------------------------------------------------------------------------------------------------------------
   0.13644    ,        807  0.15440E-02,       1094  0.80088E-04,       3742

 OUTPUT CONTROL FOR STRESS PERIOD       16   TIME STEP        1
    SAVE HEAD FOR ALL LAYERS
    SAVE BUDGET
 UBDSV1U SAVING "         STORAGE" ON UNIT  50 AT TIME STEP      1, STRESS PERIOD     16
 UBDSV2U SAVING "   CONSTANT HEAD" ON UNIT  50 AT TIME STEP      1, STRESS PERIOD     16
 UBDSV1U SAVING "   FLOW JA FACE " ON UNIT  50 AT TIME STEP      1, STRESS PERIOD     16
 UBDSV4U SAVING "           WELLS" ON UNIT  50 AT TIME STEP      1, STRESS PERIOD     16
 UBDSV4U SAVING " HEAD DEP BOUNDS" ON UNIT  50 AT TIME STEP      1, STRESS PERIOD     16
 UBDSV3U SAVING "        RECHARGE" ON UNIT  50 AT TIME STEP      1, STRESS PERIOD     16
 UBDSV2U SAVING "  STREAM LEAKAGE" ON UNIT  50 AT TIME STEP      1, STRESS PERIOD     16




 HEAD WILL BE SAVED ON UNIT   51 AT END OF TIME STEP   1, STRESS PERIOD   16
1
  VOLUMETRIC BUDGET FOR ENTIRE MODEL AT END OF TIME STEP       1 IN STRESS PERIOD      16
  ---------------------------------------------------------------------------------------

     CUMULATIVE VOLUMES      L**3       RATES FOR THIS TIME STEP      L**3/T
     ------------------                 ------------------------

           IN:                                      IN:
           ---                                      ---
             STORAGE =      342724.0954               STORAGE =           0.0000
       CONSTANT HEAD =           0.0000         CONSTANT HEAD =           0.0000
               WELLS =           0.0000                 WELLS =           0.0000
     HEAD DEP BOUNDS =      156447.5365       HEAD DEP BOUNDS =         148.5597
            RECHARGE =     1332924.6990              RECHARGE =        3766.9880
      STREAM LEAKAGE =       81680.2418        STREAM LEAKAGE =           0.5412

            TOTAL IN =     1913776.5726              TOTAL IN =        3916.0890

          OUT:                                     OUT:
          ----                                     ----
             STORAGE =      489955.7324               STORAGE =        1141.9459
       CONSTANT HEAD =           0.0000         CONSTANT HEAD =           0.0000
               WELLS =      968385.8694                 WELLS =        1093.3127
     HEAD DEP BOUNDS =      243786.4824       HEAD DEP BOUNDS =         826.6836
            RECHARGE =           0.0000              RECHARGE =           0.0000
      STREAM LEAKAGE =      211648.9571        STREAM LEAKAGE =         854.1289

           TOTAL OUT =     1913777.0413             TOTAL OUT =        3916.0712

            IN - OUT =          -0.4687              IN - OUT =       1.7799E-02

 PERCENT DISCREPANCY =          -0.00     PERCENT DISCREPANCY =           0.00






          TIME SUMMARY AT END OF TIME STEP         1 IN STRESS PERIOD        16
                    SECONDS     MINUTES      HOURS       DAYS        YEARS
                    -----------------------------------------------------------
   TIME STEP LENGTH 2.67840E+06  44640.      744.00      31.000     8.48734E-02
 STRESS PERIOD TIME 2.67840E+06  44640.      744.00      31.000     8.48734E-02
         TOTAL TIME 3.94848E+07 6.58080E+05  10968.      457.00      1.2512    
1
1
                            STRESS PERIOD NO.   17, LENGTH =   30.00000    
                            -----------------------------------------------

                              NUMBER OF TIME STEPS =     1

                               MULTIPLIER FOR DELT =     1.000

                            INITIAL TIME STEP SIZE =   30.00000    

 WEL -- WELL PACKAGE, VERSION 7, 5/2/2005 INPUT READ FROM UNIT   20

 WELL NO.      NODE       STRESS FACTOR         
 -----------------------------------------------
      1        3324      -287.8    
      2        3409      -287.8    
      3        3737      -287.8    
      4        3971      -287.8    
      5        4092      -287.8    
      6        4297      -287.8    

      6 WELLS

 GHB -- GENERAL-HEAD BOUNDARY PACKAGE, VERSION 7, 5/2/2005
         INPUT READ FROM UNIT   30

 BOUND NO.     NODE         STAGE         CONDUCTANCE         
 -------------------------------------------------------------
      1        1473       33.50           70.00    
      2        1474       33.50           70.00    
      3        1475       33.50           70.00    
      4        1476       33.50           70.00    
      5        1477       33.50           70.00    
      6        1478       33.50           70.00    
      7        1479       33.50           70.00    
      8        1480       33.50           70.00    
      9        1481       33.50           70.00    
     10        1482       33.50           70.00    
     11        2972       33.50           70.00    
     12        2973       33.50           70.00    
     13        2974       33.50           70.00    
     14        2975       33.50           70.00    
     15        2976       33.50           70.00    
     16        2977       33.50           70.00    
     17        2978       33.50           70.00    
     18        2979       33.50           70.00    
     19        2980       33.50           70.00    
     20        2981       33.50           70.00    
     21        4471       33.50           70.00    
     22        4472       33.50           70.00    
     23        4473       33.50           70.00    
     24        4474       33.50           70.00    
     25        4475       33.50           70.00    
     26        4476       33.50           70.00    
     27        4477       33.50           70.00    
     28        4478       33.50           70.00    
     29        4479       33.50           70.00    
     30        4480       33.50           70.00    
     31        2999       35.50           70.00    
     32        3000       35.50           70.00    
     33        3001       35.50           70.00    
     34        3002       35.50           70.00    
     35        3003       35.50           70.00    
     36        3004       35.50           70.00    
     37        3005       35.50           70.00    
     38        3006       35.50           70.00    
     39        3007       35.50           70.00    
     40        3008       35.50           70.00    
     41        3009       35.50           70.00    
     42        3010       35.50           70.00    
     43        3011       35.50           70.00    
     44        3012       35.50           70.00    
     45        3013       35.50           70.00    
     46        3023       35.50           4.375    
     47        3027       35.50           17.50    
     48        3028       35.50           70.00    
     49        3029       35.50           70.00    
     50        3030       35.50           70.00    

     50 GHB CELLS

 RCH -- RECHARGE PACKAGE, VERSION 7, 5/2/2005 INPUT READ FROM UNIT   31



                           RECHARGE
 READING ON UNIT   31 WITH FORMAT: (1499E15.6)         



 CLASSIFICATION & COUNT OF STREAM SEGMENTS BASED ON SOURCE OF INFLOW:

                HEADWATER     DIVERSION     RECEIVES TRIBUTARY FLOW
                ---------     ---------     -----------------------
                     1              0             159



                    INPUT DATA FOR EACH STREAM SEGMENT
 ---------------------------------------------------------------------------------------------

 SEGMENT    SEG.     INFLOW   OVERLAND   STREAM    STREAM   ICALC  OUTFLOW  DIVERSION PRIORITY
    NO.    LENGTH     RATE     RUNOFF      ET       PPT.    METH.  TO SEG.  FROM SEG.    NO.

      1  6.250E+01 1.148E+04 0.000E+00 0.000E+00 0.000E+00    1        2        0        0
      2  6.250E+01 0.000E+00 0.000E+00 0.000E+00 0.000E+00    1        3        0        0
      3  6.250E+01 0.000E+00 0.000E+00 0.000E+00 0.000E+00    1        4        0        0
      4  6.250E+01 0.000E+00 0.000E+00 0.000E+00 0.000E+00    1        5        0        0
      5  6.250E+01 0.000E+00 0.000E+00 0.000E+00 0.000E+00    1        6        0        0
      6  6.250E+01 0.000E+00 0.000E+00 0.000E+00 0.000E+00    1        7        0        0
      7  6.250E+01 0.000E+00 0.000E+00 0.000E+00 0.000E+00    1        8        0        0
      8  6.250E+01 0.000E+00 0.000E+00 0.000E+00 0.000E+00    1        9        0        0
      9  6.250E+01 0.000E+00 0.000E+00 0.000E+00 0.000E+00    1       10        0        0
     10  6.250E+01 0.000E+00 0.000E+00 0.000E+00 0.000E+00    1       11        0        0
     11  6.250E+01 0.000E+00 0.000E+00 0.000E+00 0.000E+00    1       12        0        0
     12  6.250E+01 0.000E+00 0.000E+00 0.000E+00 0.000E+00    1       13        0        0
     13  6.250E+01 0.000E+00 0.000E+00 0.000E+00 0.000E+00    1       14        0        0
     14  6.250E+01 0.000E+00 0.000E+00 0.000E+00 0.000E+00    1       15        0        0
     15  6.250E+01 0.000E+00 0.000E+00 0.000E+00 0.000E+00    1       16        0        0
     16  6.250E+01 0.000E+00 0.000E+00 0.000E+00 0.000E+00    1       17        0        0
     17  6.250E+01 0.000E+00 0.000E+00 0.000E+00 0.000E+00    1       18        0        0
     18  6.250E+01 0.000E+00 0.000E+00 0.000E+00 0.000E+00    1       19        0        0
     19  6.250E+01 0.000E+00 0.000E+00 0.000E+00 0.000E+00    1       20        0        0
     20  6.250E+01 0.000E+00 0.000E+00 0.000E+00 0.000E+00    1       21        0        0
     21  6.250E+01 0.000E+00 0.000E+00 0.000E+00 0.000E+00    1       22        0        0
     22  6.250E+01 0.000E+00 0.000E+00 0.000E+00 0.000E+00    1       23        0        0
     23  6.250E+01 0.000E+00 0.000E+00 0.000E+00 0.000E+00    1       24        0        0
     24  6.250E+01 0.000E+00 0.000E+00 0.000E+00 0.000E+00    1       25        0        0
     25  6.250E+01 0.000E+00 0.000E+00 0.000E+00 0.000E+00    1       26        0        0
     26  6.250E+01 0.000E+00 0.000E+00 0.000E+00 0.000E+00    1       27        0        0
     27  6.250E+01 0.000E+00 0.000E+00 0.000E+00 0.000E+00    1       28        0        0
     28  6.250E+01 0.000E+00 0.000E+00 0.000E+00 0.000E+00    1       29        0        0
     29  6.250E+01 0.000E+00 0.000E+00 0.000E+00 0.000E+00    1       30        0        0
     30  6.250E+01 0.000E+00 0.000E+00 0.000E+00 0.000E+00    1       31        0        0
     31  6.250E+01 0.000E+00 0.000E+00 0.000E+00 0.000E+00    1       32        0        0
     32  6.250E+01 0.000E+00 0.000E+00 0.000E+00 0.000E+00    1       33        0        0
     33  6.250E+01 0.000E+00 0.000E+00 0.000E+00 0.000E+00    1       34        0        0
     34  6.250E+01 0.000E+00 0.000E+00 0.000E+00 0.000E+00    1       35        0        0
     35  6.250E+01 0.000E+00 0.000E+00 0.000E+00 0.000E+00    1       36        0        0
     36  6.250E+01 0.000E+00 0.000E+00 0.000E+00 0.000E+00    1       37        0        0
     37  6.250E+01 0.000E+00 0.000E+00 0.000E+00 0.000E+00    1       38        0        0
     38  6.250E+01 0.000E+00 0.000E+00 0.000E+00 0.000E+00    1       39        0        0
     39  6.250E+01 0.000E+00 0.000E+00 0.000E+00 0.000E+00    1       40        0        0
     40  6.250E+01 0.000E+00 0.000E+00 0.000E+00 0.000E+00    1       41        0        0
     41  6.250E+01 0.000E+00 0.000E+00 0.000E+00 0.000E+00    1       42        0        0
     42  6.250E+01 0.000E+00 0.000E+00 0.000E+00 0.000E+00    1       43        0        0
     43  6.250E+01 0.000E+00 0.000E+00 0.000E+00 0.000E+00    1       44        0        0
     44  6.250E+01 0.000E+00 0.000E+00 0.000E+00 0.000E+00    1       45        0        0
     45  6.250E+01 0.000E+00 0.000E+00 0.000E+00 0.000E+00    1       46        0        0
     46  6.250E+01 0.000E+00 0.000E+00 0.000E+00 0.000E+00    1       47        0        0
     47  6.250E+01 0.000E+00 0.000E+00 0.000E+00 0.000E+00    1       48        0        0
     48  6.250E+01 0.000E+00 0.000E+00 0.000E+00 0.000E+00    1       49        0        0
     49  6.250E+01 0.000E+00 0.000E+00 0.000E+00 0.000E+00    1       50        0        0
     50  6.250E+01 0.000E+00 0.000E+00 0.000E+00 0.000E+00    1       51        0        0
     51  6.250E+01 0.000E+00 0.000E+00 0.000E+00 0.000E+00    1       52        0        0
     52  6.250E+01 0.000E+00 0.000E+00 0.000E+00 0.000E+00    1       53        0        0
     53  6.250E+01 0.000E+00 0.000E+00 0.000E+00 0.000E+00    1       54        0        0
     54  6.250E+01 0.000E+00 0.000E+00 0.000E+00 0.000E+00    1       55        0        0
     55  6.250E+01 0.000E+00 0.000E+00 0.000E+00 0.000E+00    1       56        0        0
     56  6.250E+01 0.000E+00 0.000E+00 0.000E+00 0.000E+00    1       57        0        0
     57  6.250E+01 0.000E+00 0.000E+00 0.000E+00 0.000E+00    1       58        0        0
     58  6.250E+01 0.000E+00 0.000E+00 0.000E+00 0.000E+00    1       59        0        0
     59  6.250E+01 0.000E+00 0.000E+00 0.000E+00 0.000E+00    1       60        0        0
     60  6.250E+01 0.000E+00 0.000E+00 0.000E+00 0.000E+00    1       61        0        0
     61  6.250E+01 0.000E+00 0.000E+00 0.000E+00 0.000E+00    1       62        0        0
     62  6.250E+01 0.000E+00 0.000E+00 0.000E+00 0.000E+00    1       63        0        0
     63  6.250E+01 0.000E+00 0.000E+00 0.000E+00 0.000E+00    1       64        0        0
     64  6.250E+01 0.000E+00 0.000E+00 0.000E+00 0.000E+00    1       65        0        0
     65  6.250E+01 0.000E+00 0.000E+00 0.000E+00 0.000E+00    1       66        0        0
     66  6.250E+01 0.000E+00 0.000E+00 0.000E+00 0.000E+00    1       67        0        0
     67  6.250E+01 0.000E+00 0.000E+00 0.000E+00 0.000E+00    1       68        0        0
     68  6.250E+01 0.000E+00 0.000E+00 0.000E+00 0.000E+00    1       69        0        0
     69  6.250E+01 0.000E+00 0.000E+00 0.000E+00 0.000E+00    1       70        0        0
     70  6.250E+01 0.000E+00 0.000E+00 0.000E+00 0.000E+00    1       71        0        0
     71  6.250E+01 0.000E+00 0.000E+00 0.000E+00 0.000E+00    1       72        0        0
     72  6.250E+01 0.000E+00 0.000E+00 0.000E+00 0.000E+00    1       73        0        0
     73  6.250E+01 0.000E+00 0.000E+00 0.000E+00 0.000E+00    1       74        0        0
     74  6.250E+01 0.000E+00 0.000E+00 0.000E+00 0.000E+00    1       75        0        0
     75  6.250E+01 0.000E+00 0.000E+00 0.000E+00 0.000E+00    1       76        0        0
     76  6.250E+01 0.000E+00 0.000E+00 0.000E+00 0.000E+00    1       77        0        0
     77  6.250E+01 0.000E+00 0.000E+00 0.000E+00 0.000E+00    1       78        0        0
     78  6.250E+01 0.000E+00 0.000E+00 0.000E+00 0.000E+00    1       79        0        0
     79  6.250E+01 0.000E+00 0.000E+00 0.000E+00 0.000E+00    1       80        0        0
     80  6.250E+01 0.000E+00 0.000E+00 0.000E+00 0.000E+00    1       81        0        0
     81  6.250E+01 0.000E+00 0.000E+00 0.000E+00 0.000E+00    1       82        0        0
     82  6.250E+01 0.000E+00 0.000E+00 0.000E+00 0.000E+00    1       83        0        0
     83  6.250E+01 0.000E+00 0.000E+00 0.000E+00 0.000E+00    1       84        0        0
     84  6.250E+01 0.000E+00 0.000E+00 0.000E+00 0.000E+00    1       85        0        0
     85  6.250E+01 0.000E+00 0.000E+00 0.000E+00 0.000E+00    1       86        0        0
     86  6.250E+01 0.000E+00 0.000E+00 0.000E+00 0.000E+00    1       87        0        0
     87  6.250E+01 0.000E+00 0.000E+00 0.000E+00 0.000E+00    1       88        0        0
     88  6.250E+01 0.000E+00 0.000E+00 0.000E+00 0.000E+00    1       89        0        0
     89  6.250E+01 0.000E+00 0.000E+00 0.000E+00 0.000E+00    1       90        0        0
     90  6.250E+01 0.000E+00 0.000E+00 0.000E+00 0.000E+00    1       91        0        0
     91  6.250E+01 0.000E+00 0.000E+00 0.000E+00 0.000E+00    1       92        0        0
     92  6.250E+01 0.000E+00 0.000E+00 0.000E+00 0.000E+00    1       93        0        0
     93  6.250E+01 0.000E+00 0.000E+00 0.000E+00 0.000E+00    1       94        0        0
     94  6.250E+01 0.000E+00 0.000E+00 0.000E+00 0.000E+00    1       95        0        0
     95  6.250E+01 0.000E+00 0.000E+00 0.000E+00 0.000E+00    1       96        0        0
     96  6.250E+01 0.000E+00 0.000E+00 0.000E+00 0.000E+00    1       97        0        0
     97  6.250E+01 0.000E+00 0.000E+00 0.000E+00 0.000E+00    1       98        0        0
     98  6.250E+01 0.000E+00 0.000E+00 0.000E+00 0.000E+00    1       99        0        0
     99  6.250E+01 0.000E+00 0.000E+00 0.000E+00 0.000E+00    1      100        0        0
    100  6.250E+01 0.000E+00 0.000E+00 0.000E+00 0.000E+00    1      101        0        0
    101  6.250E+01 0.000E+00 0.000E+00 0.000E+00 0.000E+00    1      102        0        0
    102  6.250E+01 0.000E+00 0.000E+00 0.000E+00 0.000E+00    1      103        0        0
    103  6.250E+01 0.000E+00 0.000E+00 0.000E+00 0.000E+00    1      104        0        0
    104  6.250E+01 0.000E+00 0.000E+00 0.000E+00 0.000E+00    1      105        0        0
    105  6.250E+01 0.000E+00 0.000E+00 0.000E+00 0.000E+00    1      106        0        0
    106  6.250E+01 0.000E+00 0.000E+00 0.000E+00 0.000E+00    1      107        0        0
    107  6.250E+01 0.000E+00 0.000E+00 0.000E+00 0.000E+00    1      108        0        0
    108  6.250E+01 0.000E+00 0.000E+00 0.000E+00 0.000E+00    1      109        0        0
    109  6.250E+01 0.000E+00 0.000E+00 0.000E+00 0.000E+00    1      110        0        0
    110  6.250E+01 0.000E+00 0.000E+00 0.000E+00 0.000E+00    1      111        0        0
    111  6.250E+01 0.000E+00 0.000E+00 0.000E+00 0.000E+00    1      112        0        0
    112  6.250E+01 0.000E+00 0.000E+00 0.000E+00 0.000E+00    1      113        0        0
    113  6.250E+01 0.000E+00 0.000E+00 0.000E+00 0.000E+00    1      114        0        0
    114  6.250E+01 0.000E+00 0.000E+00 0.000E+00 0.000E+00    1      115        0        0
    115  6.250E+01 0.000E+00 0.000E+00 0.000E+00 0.000E+00    1      116        0        0
    116  6.250E+01 0.000E+00 0.000E+00 0.000E+00 0.000E+00    1      117        0        0
    117  6.250E+01 0.000E+00 0.000E+00 0.000E+00 0.000E+00    1      118        0        0
    118  6.250E+01 0.000E+00 0.000E+00 0.000E+00 0.000E+00    1      119        0        0
    119  6.250E+01 0.000E+00 0.000E+00 0.000E+00 0.000E+00    1      120        0        0
    120  6.250E+01 0.000E+00 0.000E+00 0.000E+00 0.000E+00    1      121        0        0
    121  6.250E+01 0.000E+00 0.000E+00 0.000E+00 0.000E+00    1      122        0        0
    122  6.250E+01 0.000E+00 0.000E+00 0.000E+00 0.000E+00    1      123        0        0
    123  6.250E+01 0.000E+00 0.000E+00 0.000E+00 0.000E+00    1      124        0        0
    124  6.250E+01 0.000E+00 0.000E+00 0.000E+00 0.000E+00    1      125        0        0
    125  6.250E+01 0.000E+00 0.000E+00 0.000E+00 0.000E+00    1      126        0        0
    126  6.250E+01 0.000E+00 0.000E+00 0.000E+00 0.000E+00    1      127        0        0
    127  6.250E+01 0.000E+00 0.000E+00 0.000E+00 0.000E+00    1      128        0        0
    128  6.250E+01 0.000E+00 0.000E+00 0.000E+00 0.000E+00    1      129        0        0
    129  6.250E+01 0.000E+00 0.000E+00 0.000E+00 0.000E+00    1      130        0        0
    130  6.250E+01 0.000E+00 0.000E+00 0.000E+00 0.000E+00    1      131        0        0
    131  6.250E+01 0.000E+00 0.000E+00 0.000E+00 0.000E+00    1      132        0        0
    132  6.250E+01 0.000E+00 0.000E+00 0.000E+00 0.000E+00    1      133        0        0
    133  6.250E+01 0.000E+00 0.000E+00 0.000E+00 0.000E+00    1      134        0        0
    134  6.250E+01 0.000E+00 0.000E+00 0.000E+00 0.000E+00    1      135        0        0
    135  6.250E+01 0.000E+00 0.000E+00 0.000E+00 0.000E+00    1      136        0        0
    136  6.250E+01 0.000E+00 0.000E+00 0.000E+00 0.000E+00    1      137        0        0
    137  6.250E+01 0.000E+00 0.000E+00 0.000E+00 0.000E+00    1      138        0        0
    138  6.250E+01 0.000E+00 0.000E+00 0.000E+00 0.000E+00    1      139        0        0
    139  6.250E+01 0.000E+00 0.000E+00 0.000E+00 0.000E+00    1      140        0        0
    140  6.250E+01 0.000E+00 0.000E+00 0.000E+00 0.000E+00    1      141        0        0
    141  6.250E+01 0.000E+00 0.000E+00 0.000E+00 0.000E+00    1      142        0        0
    142  6.250E+01 0.000E+00 0.000E+00 0.000E+00 0.000E+00    1      143        0        0
    143  6.250E+01 0.000E+00 0.000E+00 0.000E+00 0.000E+00    1      144        0        0
    144  6.250E+01 0.000E+00 0.000E+00 0.000E+00 0.000E+00    1      145        0        0
    145  6.250E+01 0.000E+00 0.000E+00 0.000E+00 0.000E+00    1      146        0        0
    146  6.250E+01 0.000E+00 0.000E+00 0.000E+00 0.000E+00    1      147        0        0
    147  6.250E+01 0.000E+00 0.000E+00 0.000E+00 0.000E+00    1      148        0        0
    148  6.250E+01 0.000E+00 0.000E+00 0.000E+00 0.000E+00    1      149        0        0
    149  6.250E+01 0.000E+00 0.000E+00 0.000E+00 0.000E+00    1      150        0        0
    150  6.250E+01 0.000E+00 0.000E+00 0.000E+00 0.000E+00    1      151        0        0
    151  6.250E+01 0.000E+00 0.000E+00 0.000E+00 0.000E+00    1      152        0        0
    152  6.250E+01 0.000E+00 0.000E+00 0.000E+00 0.000E+00    1      153        0        0
    153  6.250E+01 0.000E+00 0.000E+00 0.000E+00 0.000E+00    1      154        0        0
    154  6.250E+01 0.000E+00 0.000E+00 0.000E+00 0.000E+00    1      155        0        0
    155  6.250E+01 0.000E+00 0.000E+00 0.000E+00 0.000E+00    1      156        0        0
    156  6.250E+01 0.000E+00 0.000E+00 0.000E+00 0.000E+00    1      157        0        0
    157  6.250E+01 0.000E+00 0.000E+00 0.000E+00 0.000E+00    1      158        0        0
    158  6.250E+01 0.000E+00 0.000E+00 0.000E+00 0.000E+00    1      159        0        0
    159  6.250E+01 0.000E+00 0.000E+00 0.000E+00 0.000E+00    1      160        0        0
    160  6.250E+01 0.000E+00 0.000E+00 0.000E+00 0.000E+00    1      161        0        0


         STREAMBED PROPERTIES AND STREAM DIMENSIONS

 SEGMENT     WIDTH OF STREAM     DEPTH OF STREAM    STREAM ROUGHNESS
    No.     UPPER     LOWER     UPPER     LOWER     CHANNEL      BANK

     1    5.000E+00 5.000E+00                      1.000E-01
     2    5.000E+00 5.000E+00                      1.000E-01
     3    5.000E+00 5.000E+00                      1.000E-01
     4    5.000E+00 5.000E+00                      1.000E-01
     5    5.000E+00 5.000E+00                      1.000E-01
     6    5.000E+00 5.000E+00                      1.000E-01
     7    5.000E+00 5.000E+00                      1.000E-01
     8    5.000E+00 5.000E+00                      1.000E-01
     9    5.000E+00 5.000E+00                      1.000E-01
    10    5.000E+00 5.000E+00                      1.000E-01
    11    5.000E+00 5.000E+00                      1.000E-01
    12    5.000E+00 5.000E+00                      1.000E-01
    13    5.000E+00 5.000E+00                      1.000E-01
    14    5.000E+00 5.000E+00                      1.000E-01
    15    5.000E+00 5.000E+00                      1.000E-01
    16    5.000E+00 5.000E+00                      1.000E-01
    17    5.000E+00 5.000E+00                      1.000E-01
    18    5.000E+00 5.000E+00                      1.000E-01
    19    5.000E+00 5.000E+00                      1.000E-01
    20    5.000E+00 5.000E+00                      1.000E-01
    21    5.000E+00 5.000E+00                      1.000E-01
    22    5.000E+00 5.000E+00                      1.000E-01
    23    5.000E+00 5.000E+00                      1.000E-01
    24    5.000E+00 5.000E+00                      1.000E-01
    25    5.000E+00 5.000E+00                      1.000E-01
    26    5.000E+00 5.000E+00                      1.000E-01
    27    5.000E+00 5.000E+00                      1.000E-01
    28    5.000E+00 5.000E+00                      1.000E-01
    29    5.000E+00 5.000E+00                      1.000E-01
    30    5.000E+00 5.000E+00                      1.000E-01
    31    5.000E+00 5.000E+00                      1.000E-01
    32    5.000E+00 5.000E+00                      1.000E-01
    33    5.000E+00 5.000E+00                      1.000E-01
    34    5.000E+00 5.000E+00                      1.000E-01
    35    5.000E+00 5.000E+00                      1.000E-01
    36    5.000E+00 5.000E+00                      1.000E-01
    37    5.000E+00 5.000E+00                      1.000E-01
    38    5.000E+00 5.000E+00                      1.000E-01
    39    5.000E+00 5.000E+00                      1.000E-01
    40    5.000E+00 5.000E+00                      1.000E-01
    41    5.000E+00 5.000E+00                      1.000E-01
    42    5.000E+00 5.000E+00                      1.000E-01
    43    5.000E+00 5.000E+00                      1.000E-01
    44    5.000E+00 5.000E+00                      1.000E-01
    45    5.000E+00 5.000E+00                      1.000E-01
    46    5.000E+00 5.000E+00                      1.000E-01
    47    5.000E+00 5.000E+00                      1.000E-01
    48    5.000E+00 5.000E+00                      1.000E-01
    49    5.000E+00 5.000E+00                      1.000E-01
    50    5.000E+00 5.000E+00                      1.000E-01
    51    5.000E+00 5.000E+00                      1.000E-01
    52    5.000E+00 5.000E+00                      1.000E-01
    53    5.000E+00 5.000E+00                      1.000E-01
    54    5.000E+00 5.000E+00                      1.000E-01
    55    5.000E+00 5.000E+00                      1.000E-01
    56    5.000E+00 5.000E+00                      1.000E-01
    57    5.000E+00 5.000E+00                      1.000E-01
    58    5.000E+00 5.000E+00                      1.000E-01
    59    5.000E+00 5.000E+00                      1.000E-01
    60    5.000E+00 5.000E+00                      1.000E-01
    61    5.000E+00 5.000E+00                      1.000E-01
    62    5.000E+00 5.000E+00                      1.000E-01
    63    5.000E+00 5.000E+00                      1.000E-01
    64    5.000E+00 5.000E+00                      1.000E-01
    65    5.000E+00 5.000E+00                      1.000E-01
    66    5.000E+00 5.000E+00                      1.000E-01
    67    5.000E+00 5.000E+00                      1.000E-01
    68    5.000E+00 5.000E+00                      1.000E-01
    69    5.000E+00 5.000E+00                      1.000E-01
    70    5.000E+00 5.000E+00                      1.000E-01
    71    5.000E+00 5.000E+00                      1.000E-01
    72    5.000E+00 5.000E+00                      1.000E-01
    73    5.000E+00 5.000E+00                      1.000E-01
    74    5.000E+00 5.000E+00                      1.000E-01
    75    5.000E+00 5.000E+00                      1.000E-01
    76    5.000E+00 5.000E+00                      1.000E-01
    77    5.000E+00 5.000E+00                      1.000E-01
    78    5.000E+00 5.000E+00                      1.000E-01
    79    5.000E+00 5.000E+00                      1.000E-01
    80    5.000E+00 5.000E+00                      1.000E-01
    81    5.000E+00 5.000E+00                      1.000E-01
    82    5.000E+00 5.000E+00                      1.000E-01
    83    5.000E+00 5.000E+00                      1.000E-01
    84    5.000E+00 5.000E+00                      1.000E-01
    85    5.000E+00 5.000E+00                      1.000E-01
    86    5.000E+00 5.000E+00                      1.000E-01
    87    5.000E+00 5.000E+00                      1.000E-01
    88    5.000E+00 5.000E+00                      1.000E-01
    89    5.000E+00 5.000E+00                      1.000E-01
    90    5.000E+00 5.000E+00                      1.000E-01
    91    5.000E+00 5.000E+00                      1.000E-01
    92    5.000E+00 5.000E+00                      1.000E-01
    93    5.000E+00 5.000E+00                      1.000E-01
    94    5.000E+00 5.000E+00                      1.000E-01
    95    5.000E+00 5.000E+00                      1.000E-01
    96    5.000E+00 5.000E+00                      1.000E-01
    97    5.000E+00 5.000E+00                      1.000E-01
    98    5.000E+00 5.000E+00                      1.000E-01
    99    5.000E+00 5.000E+00                      1.000E-01
   100    5.000E+00 5.000E+00                      1.000E-01
   101    5.000E+00 5.000E+00                      1.000E-01
   102    5.000E+00 5.000E+00                      1.000E-01
   103    5.000E+00 5.000E+00                      1.000E-01
   104    5.000E+00 5.000E+00                      1.000E-01
   105    5.000E+00 5.000E+00                      1.000E-01
   106    5.000E+00 5.000E+00                      1.000E-01
   107    5.000E+00 5.000E+00                      1.000E-01
   108    5.000E+00 5.000E+00                      1.000E-01
   109    5.000E+00 5.000E+00                      1.000E-01
   110    5.000E+00 5.000E+00                      1.000E-01
   111    5.000E+00 5.000E+00                      1.000E-01
   112    5.000E+00 5.000E+00                      1.000E-01
   113    5.000E+00 5.000E+00                      1.000E-01
   114    5.000E+00 5.000E+00                      1.000E-01
   115    5.000E+00 5.000E+00                      1.000E-01
   116    5.000E+00 5.000E+00                      1.000E-01
   117    5.000E+00 5.000E+00                      1.000E-01
   118    5.000E+00 5.000E+00                      1.000E-01
   119    5.000E+00 5.000E+00                      1.000E-01
   120    5.000E+00 5.000E+00                      1.000E-01
   121    5.000E+00 5.000E+00                      1.000E-01
   122    5.000E+00 5.000E+00                      1.000E-01
   123    5.000E+00 5.000E+00                      1.000E-01
   124    5.000E+00 5.000E+00                      1.000E-01
   125    5.000E+00 5.000E+00                      1.000E-01
   126    5.000E+00 5.000E+00                      1.000E-01
   127    5.000E+00 5.000E+00                      1.000E-01
   128    5.000E+00 5.000E+00                      1.000E-01
   129    5.000E+00 5.000E+00                      1.000E-01
   130    5.000E+00 5.000E+00                      1.000E-01
   131    5.000E+00 5.000E+00                      1.000E-01
   132    5.000E+00 5.000E+00                      1.000E-01
   133    5.000E+00 5.000E+00                      1.000E-01
   134    5.000E+00 5.000E+00                      1.000E-01
   135    5.000E+00 5.000E+00                      1.000E-01
   136    5.000E+00 5.000E+00                      1.000E-01
   137    5.000E+00 5.000E+00                      1.000E-01
   138    5.000E+00 5.000E+00                      1.000E-01
   139    5.000E+00 5.000E+00                      1.000E-01
   140    5.000E+00 5.000E+00                      1.000E-01
   141    5.000E+00 5.000E+00                      1.000E-01
   142    5.000E+00 5.000E+00                      1.000E-01
   143    5.000E+00 5.000E+00                      1.000E-01
   144    5.000E+00 5.000E+00                      1.000E-01
   145    5.000E+00 5.000E+00                      1.000E-01
   146    5.000E+00 5.000E+00                      1.000E-01
   147    5.000E+00 5.000E+00                      1.000E-01
   148    5.000E+00 5.000E+00                      1.000E-01
   149    5.000E+00 5.000E+00                      1.000E-01
   150    5.000E+00 5.000E+00                      1.000E-01
   151    5.000E+00 5.000E+00                      1.000E-01
   152    5.000E+00 5.000E+00                      1.000E-01
   153    5.000E+00 5.000E+00                      1.000E-01
   154    5.000E+00 5.000E+00                      1.000E-01
   155    5.000E+00 5.000E+00                      1.000E-01
   156    5.000E+00 5.000E+00                      1.000E-01
   157    5.000E+00 5.000E+00                      1.000E-01
   158    5.000E+00 5.000E+00                      1.000E-01
   159    5.000E+00 5.000E+00                      1.000E-01
   160    5.000E+00 5.000E+00                      1.000E-01



 
 SOLVING FOR HEAD 


 OUTER ITERATION SUMMARY
 -----------------------
 BT: Backtracking; LA: Linear Acceleration; UR: Under-relaxation

    Outer-Iteration  Inner-Iteration    Maximum Head Change  Maximum Head Change
        Number           Count               Value              Location
LA         1                7              -0.15965                  3324           GWF-node number
LA         2                5              -0.37054E-02              1388           GWF-node number
LA         3                2              -0.15321E-03              1425           GWF-node number
LA         4                1              -0.16689E-04              2796           GWF-node number


     4 CALLS TO SPARSE MATRIX SOLVER PACKAGE  IN FLOW TIME STEP   1 STRESS PERIOD  17

 TOTAL OF       4OUTER ITERATIONS
  MAXIMUM CHANGE FOR EACH ITERATION:
   MAX. CHANGE        NODE  MAX. CHANGE        NODE  MAX. CHANGE        NODE  MAX. CHANGE        NODE  MAX. CHANGE        NODE
 ------------------------------------------------------------------------------------------------------------------------------------
  -0.15965    ,       3324 -0.37054E-02,       1388 -0.15321E-03,       1425 -0.16689E-04,       2796

 OUTPUT CONTROL FOR STRESS PERIOD       17   TIME STEP        1
    SAVE HEAD FOR ALL LAYERS
    SAVE BUDGET
 UBDSV1U SAVING "         STORAGE" ON UNIT  50 AT TIME STEP      1, STRESS PERIOD     17
 UBDSV2U SAVING "   CONSTANT HEAD" ON UNIT  50 AT TIME STEP      1, STRESS PERIOD     17
 UBDSV1U SAVING "   FLOW JA FACE " ON UNIT  50 AT TIME STEP      1, STRESS PERIOD     17
 UBDSV4U SAVING "           WELLS" ON UNIT  50 AT TIME STEP      1, STRESS PERIOD     17
 UBDSV4U SAVING " HEAD DEP BOUNDS" ON UNIT  50 AT TIME STEP      1, STRESS PERIOD     17
 UBDSV3U SAVING "        RECHARGE" ON UNIT  50 AT TIME STEP      1, STRESS PERIOD     17
 UBDSV2U SAVING "  STREAM LEAKAGE" ON UNIT  50 AT TIME STEP      1, STRESS PERIOD     17




 HEAD WILL BE SAVED ON UNIT   51 AT END OF TIME STEP   1, STRESS PERIOD   17
1
  VOLUMETRIC BUDGET FOR ENTIRE MODEL AT END OF TIME STEP       1 IN STRESS PERIOD      17
  ---------------------------------------------------------------------------------------

     CUMULATIVE VOLUMES      L**3       RATES FOR THIS TIME STEP      L**3/T
     ------------------                 ------------------------

           IN:                                      IN:
           ---                                      ---
             STORAGE =      354969.7680               STORAGE =         408.1891
       CONSTANT HEAD =           0.0000         CONSTANT HEAD =           0.0000
               WELLS =           0.0000                 WELLS =           0.0000
     HEAD DEP BOUNDS =      161402.4396       HEAD DEP BOUNDS =         165.1634
            RECHARGE =     1422062.5139              RECHARGE =        2971.2605
      STREAM LEAKAGE =       81680.2418        STREAM LEAKAGE =           0.0000

            TOTAL IN =     2020114.9633              TOTAL IN =        3544.6130

          OUT:                                     OUT:
          ----                                     ----
             STORAGE =      492046.2221               STORAGE =          69.6830
       CONSTANT HEAD =           0.0000         CONSTANT HEAD =           0.0000
               WELLS =     1020187.4337                 WELLS =        1726.7188
     HEAD DEP BOUNDS =      267562.3723       HEAD DEP BOUNDS =         792.5297
            RECHARGE =           0.0000              RECHARGE =           0.0000
      STREAM LEAKAGE =      240319.5950        STREAM LEAKAGE =         955.6879

           TOTAL OUT =     2020115.6230             TOTAL OUT =        3544.6193

            IN - OUT =          -0.6597              IN - OUT =      -6.3084E-03

 PERCENT DISCREPANCY =          -0.00     PERCENT DISCREPANCY =          -0.00






          TIME SUMMARY AT END OF TIME STEP         1 IN STRESS PERIOD        17
                    SECONDS     MINUTES      HOURS       DAYS        YEARS
                    -----------------------------------------------------------
   TIME STEP LENGTH 2.59200E+06  43200.      720.00      30.000     8.21355E-02
 STRESS PERIOD TIME 2.59200E+06  43200.      720.00      30.000     8.21355E-02
         TOTAL TIME 4.20768E+07 7.01280E+05  11688.      487.00      1.3333    
1
1
                            STRESS PERIOD NO.   18, LENGTH =   31.00000    
                            -----------------------------------------------

                              NUMBER OF TIME STEPS =     1

                               MULTIPLIER FOR DELT =     1.000

                            INITIAL TIME STEP SIZE =   31.00000    

 WEL -- WELL PACKAGE, VERSION 7, 5/2/2005 INPUT READ FROM UNIT   20

 WELL NO.      NODE       STRESS FACTOR         
 -----------------------------------------------
      1        3324      -418.7    
      2        3409      -418.7    
      3        3737      -418.7    
      4        3971      -418.7    
      5        4092      -418.7    
      6        4297      -418.7    

      6 WELLS

 GHB -- GENERAL-HEAD BOUNDARY PACKAGE, VERSION 7, 5/2/2005
         INPUT READ FROM UNIT   30

 BOUND NO.     NODE         STAGE         CONDUCTANCE         
 -------------------------------------------------------------
      1        1473       33.50           70.00    
      2        1474       33.50           70.00    
      3        1475       33.50           70.00    
      4        1476       33.50           70.00    
      5        1477       33.50           70.00    
      6        1478       33.50           70.00    
      7        1479       33.50           70.00    
      8        1480       33.50           70.00    
      9        1481       33.50           70.00    
     10        1482       33.50           70.00    
     11        2972       33.50           70.00    
     12        2973       33.50           70.00    
     13        2974       33.50           70.00    
     14        2975       33.50           70.00    
     15        2976       33.50           70.00    
     16        2977       33.50           70.00    
     17        2978       33.50           70.00    
     18        2979       33.50           70.00    
     19        2980       33.50           70.00    
     20        2981       33.50           70.00    
     21        4471       33.50           70.00    
     22        4472       33.50           70.00    
     23        4473       33.50           70.00    
     24        4474       33.50           70.00    
     25        4475       33.50           70.00    
     26        4476       33.50           70.00    
     27        4477       33.50           70.00    
     28        4478       33.50           70.00    
     29        4479       33.50           70.00    
     30        4480       33.50           70.00    
     31        2999       35.50           70.00    
     32        3000       35.50           70.00    
     33        3001       35.50           70.00    
     34        3002       35.50           70.00    
     35        3003       35.50           70.00    
     36        3004       35.50           70.00    
     37        3005       35.50           70.00    
     38        3006       35.50           70.00    
     39        3007       35.50           70.00    
     40        3008       35.50           70.00    
     41        3009       35.50           70.00    
     42        3010       35.50           70.00    
     43        3011       35.50           70.00    
     44        3012       35.50           70.00    
     45        3013       35.50           70.00    
     46        3023       35.50           4.375    
     47        3027       35.50           17.50    
     48        3028       35.50           70.00    
     49        3029       35.50           70.00    
     50        3030       35.50           70.00    

     50 GHB CELLS

 RCH -- RECHARGE PACKAGE, VERSION 7, 5/2/2005 INPUT READ FROM UNIT   31



                           RECHARGE
 READING ON UNIT   31 WITH FORMAT: (1499E15.6)         



 CLASSIFICATION & COUNT OF STREAM SEGMENTS BASED ON SOURCE OF INFLOW:

                HEADWATER     DIVERSION     RECEIVES TRIBUTARY FLOW
                ---------     ---------     -----------------------
                     1              0             159



                    INPUT DATA FOR EACH STREAM SEGMENT
 ---------------------------------------------------------------------------------------------

 SEGMENT    SEG.     INFLOW   OVERLAND   STREAM    STREAM   ICALC  OUTFLOW  DIVERSION PRIORITY
    NO.    LENGTH     RATE     RUNOFF      ET       PPT.    METH.  TO SEG.  FROM SEG.    NO.

      1  6.250E+01 7.974E+03 0.000E+00 0.000E+00 0.000E+00    1        2        0        0
      2  6.250E+01 0.000E+00 0.000E+00 0.000E+00 0.000E+00    1        3        0        0
      3  6.250E+01 0.000E+00 0.000E+00 0.000E+00 0.000E+00    1        4        0        0
      4  6.250E+01 0.000E+00 0.000E+00 0.000E+00 0.000E+00    1        5        0        0
      5  6.250E+01 0.000E+00 0.000E+00 0.000E+00 0.000E+00    1        6        0        0
      6  6.250E+01 0.000E+00 0.000E+00 0.000E+00 0.000E+00    1        7        0        0
      7  6.250E+01 0.000E+00 0.000E+00 0.000E+00 0.000E+00    1        8        0        0
      8  6.250E+01 0.000E+00 0.000E+00 0.000E+00 0.000E+00    1        9        0        0
      9  6.250E+01 0.000E+00 0.000E+00 0.000E+00 0.000E+00    1       10        0        0
     10  6.250E+01 0.000E+00 0.000E+00 0.000E+00 0.000E+00    1       11        0        0
     11  6.250E+01 0.000E+00 0.000E+00 0.000E+00 0.000E+00    1       12        0        0
     12  6.250E+01 0.000E+00 0.000E+00 0.000E+00 0.000E+00    1       13        0        0
     13  6.250E+01 0.000E+00 0.000E+00 0.000E+00 0.000E+00    1       14        0        0
     14  6.250E+01 0.000E+00 0.000E+00 0.000E+00 0.000E+00    1       15        0        0
     15  6.250E+01 0.000E+00 0.000E+00 0.000E+00 0.000E+00    1       16        0        0
     16  6.250E+01 0.000E+00 0.000E+00 0.000E+00 0.000E+00    1       17        0        0
     17  6.250E+01 0.000E+00 0.000E+00 0.000E+00 0.000E+00    1       18        0        0
     18  6.250E+01 0.000E+00 0.000E+00 0.000E+00 0.000E+00    1       19        0        0
     19  6.250E+01 0.000E+00 0.000E+00 0.000E+00 0.000E+00    1       20        0        0
     20  6.250E+01 0.000E+00 0.000E+00 0.000E+00 0.000E+00    1       21        0        0
     21  6.250E+01 0.000E+00 0.000E+00 0.000E+00 0.000E+00    1       22        0        0
     22  6.250E+01 0.000E+00 0.000E+00 0.000E+00 0.000E+00    1       23        0        0
     23  6.250E+01 0.000E+00 0.000E+00 0.000E+00 0.000E+00    1       24        0        0
     24  6.250E+01 0.000E+00 0.000E+00 0.000E+00 0.000E+00    1       25        0        0
     25  6.250E+01 0.000E+00 0.000E+00 0.000E+00 0.000E+00    1       26        0        0
     26  6.250E+01 0.000E+00 0.000E+00 0.000E+00 0.000E+00    1       27        0        0
     27  6.250E+01 0.000E+00 0.000E+00 0.000E+00 0.000E+00    1       28        0        0
     28  6.250E+01 0.000E+00 0.000E+00 0.000E+00 0.000E+00    1       29        0        0
     29  6.250E+01 0.000E+00 0.000E+00 0.000E+00 0.000E+00    1       30        0        0
     30  6.250E+01 0.000E+00 0.000E+00 0.000E+00 0.000E+00    1       31        0        0
     31  6.250E+01 0.000E+00 0.000E+00 0.000E+00 0.000E+00    1       32        0        0
     32  6.250E+01 0.000E+00 0.000E+00 0.000E+00 0.000E+00    1       33        0        0
     33  6.250E+01 0.000E+00 0.000E+00 0.000E+00 0.000E+00    1       34        0        0
     34  6.250E+01 0.000E+00 0.000E+00 0.000E+00 0.000E+00    1       35        0        0
     35  6.250E+01 0.000E+00 0.000E+00 0.000E+00 0.000E+00    1       36        0        0
     36  6.250E+01 0.000E+00 0.000E+00 0.000E+00 0.000E+00    1       37        0        0
     37  6.250E+01 0.000E+00 0.000E+00 0.000E+00 0.000E+00    1       38        0        0
     38  6.250E+01 0.000E+00 0.000E+00 0.000E+00 0.000E+00    1       39        0        0
     39  6.250E+01 0.000E+00 0.000E+00 0.000E+00 0.000E+00    1       40        0        0
     40  6.250E+01 0.000E+00 0.000E+00 0.000E+00 0.000E+00    1       41        0        0
     41  6.250E+01 0.000E+00 0.000E+00 0.000E+00 0.000E+00    1       42        0        0
     42  6.250E+01 0.000E+00 0.000E+00 0.000E+00 0.000E+00    1       43        0        0
     43  6.250E+01 0.000E+00 0.000E+00 0.000E+00 0.000E+00    1       44        0        0
     44  6.250E+01 0.000E+00 0.000E+00 0.000E+00 0.000E+00    1       45        0        0
     45  6.250E+01 0.000E+00 0.000E+00 0.000E+00 0.000E+00    1       46        0        0
     46  6.250E+01 0.000E+00 0.000E+00 0.000E+00 0.000E+00    1       47        0        0
     47  6.250E+01 0.000E+00 0.000E+00 0.000E+00 0.000E+00    1       48        0        0
     48  6.250E+01 0.000E+00 0.000E+00 0.000E+00 0.000E+00    1       49        0        0
     49  6.250E+01 0.000E+00 0.000E+00 0.000E+00 0.000E+00    1       50        0        0
     50  6.250E+01 0.000E+00 0.000E+00 0.000E+00 0.000E+00    1       51        0        0
     51  6.250E+01 0.000E+00 0.000E+00 0.000E+00 0.000E+00    1       52        0        0
     52  6.250E+01 0.000E+00 0.000E+00 0.000E+00 0.000E+00    1       53        0        0
     53  6.250E+01 0.000E+00 0.000E+00 0.000E+00 0.000E+00    1       54        0        0
     54  6.250E+01 0.000E+00 0.000E+00 0.000E+00 0.000E+00    1       55        0        0
     55  6.250E+01 0.000E+00 0.000E+00 0.000E+00 0.000E+00    1       56        0        0
     56  6.250E+01 0.000E+00 0.000E+00 0.000E+00 0.000E+00    1       57        0        0
     57  6.250E+01 0.000E+00 0.000E+00 0.000E+00 0.000E+00    1       58        0        0
     58  6.250E+01 0.000E+00 0.000E+00 0.000E+00 0.000E+00    1       59        0        0
     59  6.250E+01 0.000E+00 0.000E+00 0.000E+00 0.000E+00    1       60        0        0
     60  6.250E+01 0.000E+00 0.000E+00 0.000E+00 0.000E+00    1       61        0        0
     61  6.250E+01 0.000E+00 0.000E+00 0.000E+00 0.000E+00    1       62        0        0
     62  6.250E+01 0.000E+00 0.000E+00 0.000E+00 0.000E+00    1       63        0        0
     63  6.250E+01 0.000E+00 0.000E+00 0.000E+00 0.000E+00    1       64        0        0
     64  6.250E+01 0.000E+00 0.000E+00 0.000E+00 0.000E+00    1       65        0        0
     65  6.250E+01 0.000E+00 0.000E+00 0.000E+00 0.000E+00    1       66        0        0
     66  6.250E+01 0.000E+00 0.000E+00 0.000E+00 0.000E+00    1       67        0        0
     67  6.250E+01 0.000E+00 0.000E+00 0.000E+00 0.000E+00    1       68        0        0
     68  6.250E+01 0.000E+00 0.000E+00 0.000E+00 0.000E+00    1       69        0        0
     69  6.250E+01 0.000E+00 0.000E+00 0.000E+00 0.000E+00    1       70        0        0
     70  6.250E+01 0.000E+00 0.000E+00 0.000E+00 0.000E+00    1       71        0        0
     71  6.250E+01 0.000E+00 0.000E+00 0.000E+00 0.000E+00    1       72        0        0
     72  6.250E+01 0.000E+00 0.000E+00 0.000E+00 0.000E+00    1       73        0        0
     73  6.250E+01 0.000E+00 0.000E+00 0.000E+00 0.000E+00    1       74        0        0
     74  6.250E+01 0.000E+00 0.000E+00 0.000E+00 0.000E+00    1       75        0        0
     75  6.250E+01 0.000E+00 0.000E+00 0.000E+00 0.000E+00    1       76        0        0
     76  6.250E+01 0.000E+00 0.000E+00 0.000E+00 0.000E+00    1       77        0        0
     77  6.250E+01 0.000E+00 0.000E+00 0.000E+00 0.000E+00    1       78        0        0
     78  6.250E+01 0.000E+00 0.000E+00 0.000E+00 0.000E+00    1       79        0        0
     79  6.250E+01 0.000E+00 0.000E+00 0.000E+00 0.000E+00    1       80        0        0
     80  6.250E+01 0.000E+00 0.000E+00 0.000E+00 0.000E+00    1       81        0        0
     81  6.250E+01 0.000E+00 0.000E+00 0.000E+00 0.000E+00    1       82        0        0
     82  6.250E+01 0.000E+00 0.000E+00 0.000E+00 0.000E+00    1       83        0        0
     83  6.250E+01 0.000E+00 0.000E+00 0.000E+00 0.000E+00    1       84        0        0
     84  6.250E+01 0.000E+00 0.000E+00 0.000E+00 0.000E+00    1       85        0        0
     85  6.250E+01 0.000E+00 0.000E+00 0.000E+00 0.000E+00    1       86        0        0
     86  6.250E+01 0.000E+00 0.000E+00 0.000E+00 0.000E+00    1       87        0        0
     87  6.250E+01 0.000E+00 0.000E+00 0.000E+00 0.000E+00    1       88        0        0
     88  6.250E+01 0.000E+00 0.000E+00 0.000E+00 0.000E+00    1       89        0        0
     89  6.250E+01 0.000E+00 0.000E+00 0.000E+00 0.000E+00    1       90        0        0
     90  6.250E+01 0.000E+00 0.000E+00 0.000E+00 0.000E+00    1       91        0        0
     91  6.250E+01 0.000E+00 0.000E+00 0.000E+00 0.000E+00    1       92        0        0
     92  6.250E+01 0.000E+00 0.000E+00 0.000E+00 0.000E+00    1       93        0        0
     93  6.250E+01 0.000E+00 0.000E+00 0.000E+00 0.000E+00    1       94        0        0
     94  6.250E+01 0.000E+00 0.000E+00 0.000E+00 0.000E+00    1       95        0        0
     95  6.250E+01 0.000E+00 0.000E+00 0.000E+00 0.000E+00    1       96        0        0
     96  6.250E+01 0.000E+00 0.000E+00 0.000E+00 0.000E+00    1       97        0        0
     97  6.250E+01 0.000E+00 0.000E+00 0.000E+00 0.000E+00    1       98        0        0
     98  6.250E+01 0.000E+00 0.000E+00 0.000E+00 0.000E+00    1       99        0        0
     99  6.250E+01 0.000E+00 0.000E+00 0.000E+00 0.000E+00    1      100        0        0
    100  6.250E+01 0.000E+00 0.000E+00 0.000E+00 0.000E+00    1      101        0        0
    101  6.250E+01 0.000E+00 0.000E+00 0.000E+00 0.000E+00    1      102        0        0
    102  6.250E+01 0.000E+00 0.000E+00 0.000E+00 0.000E+00    1      103        0        0
    103  6.250E+01 0.000E+00 0.000E+00 0.000E+00 0.000E+00    1      104        0        0
    104  6.250E+01 0.000E+00 0.000E+00 0.000E+00 0.000E+00    1      105        0        0
    105  6.250E+01 0.000E+00 0.000E+00 0.000E+00 0.000E+00    1      106        0        0
    106  6.250E+01 0.000E+00 0.000E+00 0.000E+00 0.000E+00    1      107        0        0
    107  6.250E+01 0.000E+00 0.000E+00 0.000E+00 0.000E+00    1      108        0        0
    108  6.250E+01 0.000E+00 0.000E+00 0.000E+00 0.000E+00    1      109        0        0
    109  6.250E+01 0.000E+00 0.000E+00 0.000E+00 0.000E+00    1      110        0        0
    110  6.250E+01 0.000E+00 0.000E+00 0.000E+00 0.000E+00    1      111        0        0
    111  6.250E+01 0.000E+00 0.000E+00 0.000E+00 0.000E+00    1      112        0        0
    112  6.250E+01 0.000E+00 0.000E+00 0.000E+00 0.000E+00    1      113        0        0
    113  6.250E+01 0.000E+00 0.000E+00 0.000E+00 0.000E+00    1      114        0        0
    114  6.250E+01 0.000E+00 0.000E+00 0.000E+00 0.000E+00    1      115        0        0
    115  6.250E+01 0.000E+00 0.000E+00 0.000E+00 0.000E+00    1      116        0        0
    116  6.250E+01 0.000E+00 0.000E+00 0.000E+00 0.000E+00    1      117        0        0
    117  6.250E+01 0.000E+00 0.000E+00 0.000E+00 0.000E+00    1      118        0        0
    118  6.250E+01 0.000E+00 0.000E+00 0.000E+00 0.000E+00    1      119        0        0
    119  6.250E+01 0.000E+00 0.000E+00 0.000E+00 0.000E+00    1      120        0        0
    120  6.250E+01 0.000E+00 0.000E+00 0.000E+00 0.000E+00    1      121        0        0
    121  6.250E+01 0.000E+00 0.000E+00 0.000E+00 0.000E+00    1      122        0        0
    122  6.250E+01 0.000E+00 0.000E+00 0.000E+00 0.000E+00    1      123        0        0
    123  6.250E+01 0.000E+00 0.000E+00 0.000E+00 0.000E+00    1      124        0        0
    124  6.250E+01 0.000E+00 0.000E+00 0.000E+00 0.000E+00    1      125        0        0
    125  6.250E+01 0.000E+00 0.000E+00 0.000E+00 0.000E+00    1      126        0        0
    126  6.250E+01 0.000E+00 0.000E+00 0.000E+00 0.000E+00    1      127        0        0
    127  6.250E+01 0.000E+00 0.000E+00 0.000E+00 0.000E+00    1      128        0        0
    128  6.250E+01 0.000E+00 0.000E+00 0.000E+00 0.000E+00    1      129        0        0
    129  6.250E+01 0.000E+00 0.000E+00 0.000E+00 0.000E+00    1      130        0        0
    130  6.250E+01 0.000E+00 0.000E+00 0.000E+00 0.000E+00    1      131        0        0
    131  6.250E+01 0.000E+00 0.000E+00 0.000E+00 0.000E+00    1      132        0        0
    132  6.250E+01 0.000E+00 0.000E+00 0.000E+00 0.000E+00    1      133        0        0
    133  6.250E+01 0.000E+00 0.000E+00 0.000E+00 0.000E+00    1      134        0        0
    134  6.250E+01 0.000E+00 0.000E+00 0.000E+00 0.000E+00    1      135        0        0
    135  6.250E+01 0.000E+00 0.000E+00 0.000E+00 0.000E+00    1      136        0        0
    136  6.250E+01 0.000E+00 0.000E+00 0.000E+00 0.000E+00    1      137        0        0
    137  6.250E+01 0.000E+00 0.000E+00 0.000E+00 0.000E+00    1      138        0        0
    138  6.250E+01 0.000E+00 0.000E+00 0.000E+00 0.000E+00    1      139        0        0
    139  6.250E+01 0.000E+00 0.000E+00 0.000E+00 0.000E+00    1      140        0        0
    140  6.250E+01 0.000E+00 0.000E+00 0.000E+00 0.000E+00    1      141        0        0
    141  6.250E+01 0.000E+00 0.000E+00 0.000E+00 0.000E+00    1      142        0        0
    142  6.250E+01 0.000E+00 0.000E+00 0.000E+00 0.000E+00    1      143        0        0
    143  6.250E+01 0.000E+00 0.000E+00 0.000E+00 0.000E+00    1      144        0        0
    144  6.250E+01 0.000E+00 0.000E+00 0.000E+00 0.000E+00    1      145        0        0
    145  6.250E+01 0.000E+00 0.000E+00 0.000E+00 0.000E+00    1      146        0        0
    146  6.250E+01 0.000E+00 0.000E+00 0.000E+00 0.000E+00    1      147        0        0
    147  6.250E+01 0.000E+00 0.000E+00 0.000E+00 0.000E+00    1      148        0        0
    148  6.250E+01 0.000E+00 0.000E+00 0.000E+00 0.000E+00    1      149        0        0
    149  6.250E+01 0.000E+00 0.000E+00 0.000E+00 0.000E+00    1      150        0        0
    150  6.250E+01 0.000E+00 0.000E+00 0.000E+00 0.000E+00    1      151        0        0
    151  6.250E+01 0.000E+00 0.000E+00 0.000E+00 0.000E+00    1      152        0        0
    152  6.250E+01 0.000E+00 0.000E+00 0.000E+00 0.000E+00    1      153        0        0
    153  6.250E+01 0.000E+00 0.000E+00 0.000E+00 0.000E+00    1      154        0        0
    154  6.250E+01 0.000E+00 0.000E+00 0.000E+00 0.000E+00    1      155        0        0
    155  6.250E+01 0.000E+00 0.000E+00 0.000E+00 0.000E+00    1      156        0        0
    156  6.250E+01 0.000E+00 0.000E+00 0.000E+00 0.000E+00    1      157        0        0
    157  6.250E+01 0.000E+00 0.000E+00 0.000E+00 0.000E+00    1      158        0        0
    158  6.250E+01 0.000E+00 0.000E+00 0.000E+00 0.000E+00    1      159        0        0
    159  6.250E+01 0.000E+00 0.000E+00 0.000E+00 0.000E+00    1      160        0        0
    160  6.250E+01 0.000E+00 0.000E+00 0.000E+00 0.000E+00    1      161        0        0


         STREAMBED PROPERTIES AND STREAM DIMENSIONS

 SEGMENT     WIDTH OF STREAM     DEPTH OF STREAM    STREAM ROUGHNESS
    No.     UPPER     LOWER     UPPER     LOWER     CHANNEL      BANK

     1    5.000E+00 5.000E+00                      1.000E-01
     2    5.000E+00 5.000E+00                      1.000E-01
     3    5.000E+00 5.000E+00                      1.000E-01
     4    5.000E+00 5.000E+00                      1.000E-01
     5    5.000E+00 5.000E+00                      1.000E-01
     6    5.000E+00 5.000E+00                      1.000E-01
     7    5.000E+00 5.000E+00                      1.000E-01
     8    5.000E+00 5.000E+00                      1.000E-01
     9    5.000E+00 5.000E+00                      1.000E-01
    10    5.000E+00 5.000E+00                      1.000E-01
    11    5.000E+00 5.000E+00                      1.000E-01
    12    5.000E+00 5.000E+00                      1.000E-01
    13    5.000E+00 5.000E+00                      1.000E-01
    14    5.000E+00 5.000E+00                      1.000E-01
    15    5.000E+00 5.000E+00                      1.000E-01
    16    5.000E+00 5.000E+00                      1.000E-01
    17    5.000E+00 5.000E+00                      1.000E-01
    18    5.000E+00 5.000E+00                      1.000E-01
    19    5.000E+00 5.000E+00                      1.000E-01
    20    5.000E+00 5.000E+00                      1.000E-01
    21    5.000E+00 5.000E+00                      1.000E-01
    22    5.000E+00 5.000E+00                      1.000E-01
    23    5.000E+00 5.000E+00                      1.000E-01
    24    5.000E+00 5.000E+00                      1.000E-01
    25    5.000E+00 5.000E+00                      1.000E-01
    26    5.000E+00 5.000E+00                      1.000E-01
    27    5.000E+00 5.000E+00                      1.000E-01
    28    5.000E+00 5.000E+00                      1.000E-01
    29    5.000E+00 5.000E+00                      1.000E-01
    30    5.000E+00 5.000E+00                      1.000E-01
    31    5.000E+00 5.000E+00                      1.000E-01
    32    5.000E+00 5.000E+00                      1.000E-01
    33    5.000E+00 5.000E+00                      1.000E-01
    34    5.000E+00 5.000E+00                      1.000E-01
    35    5.000E+00 5.000E+00                      1.000E-01
    36    5.000E+00 5.000E+00                      1.000E-01
    37    5.000E+00 5.000E+00                      1.000E-01
    38    5.000E+00 5.000E+00                      1.000E-01
    39    5.000E+00 5.000E+00                      1.000E-01
    40    5.000E+00 5.000E+00                      1.000E-01
    41    5.000E+00 5.000E+00                      1.000E-01
    42    5.000E+00 5.000E+00                      1.000E-01
    43    5.000E+00 5.000E+00                      1.000E-01
    44    5.000E+00 5.000E+00                      1.000E-01
    45    5.000E+00 5.000E+00                      1.000E-01
    46    5.000E+00 5.000E+00                      1.000E-01
    47    5.000E+00 5.000E+00                      1.000E-01
    48    5.000E+00 5.000E+00                      1.000E-01
    49    5.000E+00 5.000E+00                      1.000E-01
    50    5.000E+00 5.000E+00                      1.000E-01
    51    5.000E+00 5.000E+00                      1.000E-01
    52    5.000E+00 5.000E+00                      1.000E-01
    53    5.000E+00 5.000E+00                      1.000E-01
    54    5.000E+00 5.000E+00                      1.000E-01
    55    5.000E+00 5.000E+00                      1.000E-01
    56    5.000E+00 5.000E+00                      1.000E-01
    57    5.000E+00 5.000E+00                      1.000E-01
    58    5.000E+00 5.000E+00                      1.000E-01
    59    5.000E+00 5.000E+00                      1.000E-01
    60    5.000E+00 5.000E+00                      1.000E-01
    61    5.000E+00 5.000E+00                      1.000E-01
    62    5.000E+00 5.000E+00                      1.000E-01
    63    5.000E+00 5.000E+00                      1.000E-01
    64    5.000E+00 5.000E+00                      1.000E-01
    65    5.000E+00 5.000E+00                      1.000E-01
    66    5.000E+00 5.000E+00                      1.000E-01
    67    5.000E+00 5.000E+00                      1.000E-01
    68    5.000E+00 5.000E+00                      1.000E-01
    69    5.000E+00 5.000E+00                      1.000E-01
    70    5.000E+00 5.000E+00                      1.000E-01
    71    5.000E+00 5.000E+00                      1.000E-01
    72    5.000E+00 5.000E+00                      1.000E-01
    73    5.000E+00 5.000E+00                      1.000E-01
    74    5.000E+00 5.000E+00                      1.000E-01
    75    5.000E+00 5.000E+00                      1.000E-01
    76    5.000E+00 5.000E+00                      1.000E-01
    77    5.000E+00 5.000E+00                      1.000E-01
    78    5.000E+00 5.000E+00                      1.000E-01
    79    5.000E+00 5.000E+00                      1.000E-01
    80    5.000E+00 5.000E+00                      1.000E-01
    81    5.000E+00 5.000E+00                      1.000E-01
    82    5.000E+00 5.000E+00                      1.000E-01
    83    5.000E+00 5.000E+00                      1.000E-01
    84    5.000E+00 5.000E+00                      1.000E-01
    85    5.000E+00 5.000E+00                      1.000E-01
    86    5.000E+00 5.000E+00                      1.000E-01
    87    5.000E+00 5.000E+00                      1.000E-01
    88    5.000E+00 5.000E+00                      1.000E-01
    89    5.000E+00 5.000E+00                      1.000E-01
    90    5.000E+00 5.000E+00                      1.000E-01
    91    5.000E+00 5.000E+00                      1.000E-01
    92    5.000E+00 5.000E+00                      1.000E-01
    93    5.000E+00 5.000E+00                      1.000E-01
    94    5.000E+00 5.000E+00                      1.000E-01
    95    5.000E+00 5.000E+00                      1.000E-01
    96    5.000E+00 5.000E+00                      1.000E-01
    97    5.000E+00 5.000E+00                      1.000E-01
    98    5.000E+00 5.000E+00                      1.000E-01
    99    5.000E+00 5.000E+00                      1.000E-01
   100    5.000E+00 5.000E+00                      1.000E-01
   101    5.000E+00 5.000E+00                      1.000E-01
   102    5.000E+00 5.000E+00                      1.000E-01
   103    5.000E+00 5.000E+00                      1.000E-01
   104    5.000E+00 5.000E+00                      1.000E-01
   105    5.000E+00 5.000E+00                      1.000E-01
   106    5.000E+00 5.000E+00                      1.000E-01
   107    5.000E+00 5.000E+00                      1.000E-01
   108    5.000E+00 5.000E+00                      1.000E-01
   109    5.000E+00 5.000E+00                      1.000E-01
   110    5.000E+00 5.000E+00                      1.000E-01
   111    5.000E+00 5.000E+00                      1.000E-01
   112    5.000E+00 5.000E+00                      1.000E-01
   113    5.000E+00 5.000E+00                      1.000E-01
   114    5.000E+00 5.000E+00                      1.000E-01
   115    5.000E+00 5.000E+00                      1.000E-01
   116    5.000E+00 5.000E+00                      1.000E-01
   117    5.000E+00 5.000E+00                      1.000E-01
   118    5.000E+00 5.000E+00                      1.000E-01
   119    5.000E+00 5.000E+00                      1.000E-01
   120    5.000E+00 5.000E+00                      1.000E-01
   121    5.000E+00 5.000E+00                      1.000E-01
   122    5.000E+00 5.000E+00                      1.000E-01
   123    5.000E+00 5.000E+00                      1.000E-01
   124    5.000E+00 5.000E+00                      1.000E-01
   125    5.000E+00 5.000E+00                      1.000E-01
   126    5.000E+00 5.000E+00                      1.000E-01
   127    5.000E+00 5.000E+00                      1.000E-01
   128    5.000E+00 5.000E+00                      1.000E-01
   129    5.000E+00 5.000E+00                      1.000E-01
   130    5.000E+00 5.000E+00                      1.000E-01
   131    5.000E+00 5.000E+00                      1.000E-01
   132    5.000E+00 5.000E+00                      1.000E-01
   133    5.000E+00 5.000E+00                      1.000E-01
   134    5.000E+00 5.000E+00                      1.000E-01
   135    5.000E+00 5.000E+00                      1.000E-01
   136    5.000E+00 5.000E+00                      1.000E-01
   137    5.000E+00 5.000E+00                      1.000E-01
   138    5.000E+00 5.000E+00                      1.000E-01
   139    5.000E+00 5.000E+00                      1.000E-01
   140    5.000E+00 5.000E+00                      1.000E-01
   141    5.000E+00 5.000E+00                      1.000E-01
   142    5.000E+00 5.000E+00                      1.000E-01
   143    5.000E+00 5.000E+00                      1.000E-01
   144    5.000E+00 5.000E+00                      1.000E-01
   145    5.000E+00 5.000E+00                      1.000E-01
   146    5.000E+00 5.000E+00                      1.000E-01
   147    5.000E+00 5.000E+00                      1.000E-01
   148    5.000E+00 5.000E+00                      1.000E-01
   149    5.000E+00 5.000E+00                      1.000E-01
   150    5.000E+00 5.000E+00                      1.000E-01
   151    5.000E+00 5.000E+00                      1.000E-01
   152    5.000E+00 5.000E+00                      1.000E-01
   153    5.000E+00 5.000E+00                      1.000E-01
   154    5.000E+00 5.000E+00                      1.000E-01
   155    5.000E+00 5.000E+00                      1.000E-01
   156    5.000E+00 5.000E+00                      1.000E-01
   157    5.000E+00 5.000E+00                      1.000E-01
   158    5.000E+00 5.000E+00                      1.000E-01
   159    5.000E+00 5.000E+00                      1.000E-01
   160    5.000E+00 5.000E+00                      1.000E-01



 
 SOLVING FOR HEAD 


 OUTER ITERATION SUMMARY
 -----------------------
 BT: Backtracking; LA: Linear Acceleration; UR: Under-relaxation

    Outer-Iteration  Inner-Iteration    Maximum Head Change  Maximum Head Change
        Number           Count               Value              Location
LA         1                8              -0.28203                  3324           GWF-node number
LA         2                5              -0.87026E-02              1388           GWF-node number
LA         3                2              -0.39515E-03              1425           GWF-node number
LA         4                1              -0.23742E-04              1395           GWF-node number


     4 CALLS TO SPARSE MATRIX SOLVER PACKAGE  IN FLOW TIME STEP   1 STRESS PERIOD  18

 TOTAL OF       4OUTER ITERATIONS
  MAXIMUM CHANGE FOR EACH ITERATION:
   MAX. CHANGE        NODE  MAX. CHANGE        NODE  MAX. CHANGE        NODE  MAX. CHANGE        NODE  MAX. CHANGE        NODE
 ------------------------------------------------------------------------------------------------------------------------------------
  -0.28203    ,       3324 -0.87026E-02,       1388 -0.39515E-03,       1425 -0.23742E-04,       1395

 OUTPUT CONTROL FOR STRESS PERIOD       18   TIME STEP        1
    SAVE HEAD FOR ALL LAYERS
    SAVE BUDGET
 UBDSV1U SAVING "         STORAGE" ON UNIT  50 AT TIME STEP      1, STRESS PERIOD     18
 UBDSV2U SAVING "   CONSTANT HEAD" ON UNIT  50 AT TIME STEP      1, STRESS PERIOD     18
 UBDSV1U SAVING "   FLOW JA FACE " ON UNIT  50 AT TIME STEP      1, STRESS PERIOD     18
 UBDSV4U SAVING "           WELLS" ON UNIT  50 AT TIME STEP      1, STRESS PERIOD     18
 UBDSV4U SAVING " HEAD DEP BOUNDS" ON UNIT  50 AT TIME STEP      1, STRESS PERIOD     18
 UBDSV3U SAVING "        RECHARGE" ON UNIT  50 AT TIME STEP      1, STRESS PERIOD     18
 UBDSV2U SAVING "  STREAM LEAKAGE" ON UNIT  50 AT TIME STEP      1, STRESS PERIOD     18




 HEAD WILL BE SAVED ON UNIT   51 AT END OF TIME STEP   1, STRESS PERIOD   18
1
  VOLUMETRIC BUDGET FOR ENTIRE MODEL AT END OF TIME STEP       1 IN STRESS PERIOD      18
  ---------------------------------------------------------------------------------------

     CUMULATIVE VOLUMES      L**3       RATES FOR THIS TIME STEP      L**3/T
     ------------------                 ------------------------

           IN:                                      IN:
           ---                                      ---
             STORAGE =      408148.9112               STORAGE =        1715.4562
       CONSTANT HEAD =           0.0000         CONSTANT HEAD =           0.0000
               WELLS =           0.0000                 WELLS =           0.0000
     HEAD DEP BOUNDS =      168850.0321       HEAD DEP BOUNDS =         240.2449
            RECHARGE =     1486051.5620              RECHARGE =        2064.1628
      STREAM LEAKAGE =       81680.2418        STREAM LEAKAGE =           0.0000

            TOTAL IN =     2144730.7471              TOTAL IN =        4019.8640

          OUT:                                     OUT:
          ----                                     ----
             STORAGE =      492046.2221               STORAGE =           0.0000
       CONSTANT HEAD =           0.0000         CONSTANT HEAD =           0.0000
               WELLS =     1098074.4456                 WELLS =        2512.4844
     HEAD DEP BOUNDS =      287850.2035       HEAD DEP BOUNDS =         654.4462
            RECHARGE =           0.0000              RECHARGE =           0.0000
      STREAM LEAKAGE =      266761.0207        STREAM LEAKAGE =         852.9492

           TOTAL OUT =     2144731.8918             TOTAL OUT =        4019.8798

            IN - OUT =          -1.1447              IN - OUT =      -1.5766E-02

 PERCENT DISCREPANCY =          -0.00     PERCENT DISCREPANCY =          -0.00






          TIME SUMMARY AT END OF TIME STEP         1 IN STRESS PERIOD        18
                    SECONDS     MINUTES      HOURS       DAYS        YEARS
                    -----------------------------------------------------------
   TIME STEP LENGTH 2.67840E+06  44640.      744.00      31.000     8.48734E-02
 STRESS PERIOD TIME 2.67840E+06  44640.      744.00      31.000     8.48734E-02
         TOTAL TIME 4.47552E+07 7.45920E+05  12432.      518.00      1.4182    
1
1
                            STRESS PERIOD NO.   19, LENGTH =   30.00000    
                            -----------------------------------------------

                              NUMBER OF TIME STEPS =     1

                               MULTIPLIER FOR DELT =     1.000

                            INITIAL TIME STEP SIZE =   30.00000    

 WEL -- WELL PACKAGE, VERSION 7, 5/2/2005 INPUT READ FROM UNIT   20

 WELL NO.      NODE       STRESS FACTOR         
 -----------------------------------------------
      1        3324      -537.0    
      2        3409      -537.0    
      3        3737      -537.0    
      4        3971      -537.0    
      5        4092      -537.0    
      6        4297      -537.0    

      6 WELLS

 GHB -- GENERAL-HEAD BOUNDARY PACKAGE, VERSION 7, 5/2/2005
         INPUT READ FROM UNIT   30

 BOUND NO.     NODE         STAGE         CONDUCTANCE         
 -------------------------------------------------------------
      1        1473       33.50           70.00    
      2        1474       33.50           70.00    
      3        1475       33.50           70.00    
      4        1476       33.50           70.00    
      5        1477       33.50           70.00    
      6        1478       33.50           70.00    
      7        1479       33.50           70.00    
      8        1480       33.50           70.00    
      9        1481       33.50           70.00    
     10        1482       33.50           70.00    
     11        2972       33.50           70.00    
     12        2973       33.50           70.00    
     13        2974       33.50           70.00    
     14        2975       33.50           70.00    
     15        2976       33.50           70.00    
     16        2977       33.50           70.00    
     17        2978       33.50           70.00    
     18        2979       33.50           70.00    
     19        2980       33.50           70.00    
     20        2981       33.50           70.00    
     21        4471       33.50           70.00    
     22        4472       33.50           70.00    
     23        4473       33.50           70.00    
     24        4474       33.50           70.00    
     25        4475       33.50           70.00    
     26        4476       33.50           70.00    
     27        4477       33.50           70.00    
     28        4478       33.50           70.00    
     29        4479       33.50           70.00    
     30        4480       33.50           70.00    
     31        2999       35.50           70.00    
     32        3000       35.50           70.00    
     33        3001       35.50           70.00    
     34        3002       35.50           70.00    
     35        3003       35.50           70.00    
     36        3004       35.50           70.00    
     37        3005       35.50           70.00    
     38        3006       35.50           70.00    
     39        3007       35.50           70.00    
     40        3008       35.50           70.00    
     41        3009       35.50           70.00    
     42        3010       35.50           70.00    
     43        3011       35.50           70.00    
     44        3012       35.50           70.00    
     45        3013       35.50           70.00    
     46        3023       35.50           4.375    
     47        3027       35.50           17.50    
     48        3028       35.50           70.00    
     49        3029       35.50           70.00    
     50        3030       35.50           70.00    

     50 GHB CELLS

 RCH -- RECHARGE PACKAGE, VERSION 7, 5/2/2005 INPUT READ FROM UNIT   31



                           RECHARGE
 READING ON UNIT   31 WITH FORMAT: (1499E15.6)         



 CLASSIFICATION & COUNT OF STREAM SEGMENTS BASED ON SOURCE OF INFLOW:

                HEADWATER     DIVERSION     RECEIVES TRIBUTARY FLOW
                ---------     ---------     -----------------------
                     1              0             159



                    INPUT DATA FOR EACH STREAM SEGMENT
 ---------------------------------------------------------------------------------------------

 SEGMENT    SEG.     INFLOW   OVERLAND   STREAM    STREAM   ICALC  OUTFLOW  DIVERSION PRIORITY
    NO.    LENGTH     RATE     RUNOFF      ET       PPT.    METH.  TO SEG.  FROM SEG.    NO.

      1  6.250E+01 5.060E+03 0.000E+00 0.000E+00 0.000E+00    1        2        0        0
      2  6.250E+01 0.000E+00 0.000E+00 0.000E+00 0.000E+00    1        3        0        0
      3  6.250E+01 0.000E+00 0.000E+00 0.000E+00 0.000E+00    1        4        0        0
      4  6.250E+01 0.000E+00 0.000E+00 0.000E+00 0.000E+00    1        5        0        0
      5  6.250E+01 0.000E+00 0.000E+00 0.000E+00 0.000E+00    1        6        0        0
      6  6.250E+01 0.000E+00 0.000E+00 0.000E+00 0.000E+00    1        7        0        0
      7  6.250E+01 0.000E+00 0.000E+00 0.000E+00 0.000E+00    1        8        0        0
      8  6.250E+01 0.000E+00 0.000E+00 0.000E+00 0.000E+00    1        9        0        0
      9  6.250E+01 0.000E+00 0.000E+00 0.000E+00 0.000E+00    1       10        0        0
     10  6.250E+01 0.000E+00 0.000E+00 0.000E+00 0.000E+00    1       11        0        0
     11  6.250E+01 0.000E+00 0.000E+00 0.000E+00 0.000E+00    1       12        0        0
     12  6.250E+01 0.000E+00 0.000E+00 0.000E+00 0.000E+00    1       13        0        0
     13  6.250E+01 0.000E+00 0.000E+00 0.000E+00 0.000E+00    1       14        0        0
     14  6.250E+01 0.000E+00 0.000E+00 0.000E+00 0.000E+00    1       15        0        0
     15  6.250E+01 0.000E+00 0.000E+00 0.000E+00 0.000E+00    1       16        0        0
     16  6.250E+01 0.000E+00 0.000E+00 0.000E+00 0.000E+00    1       17        0        0
     17  6.250E+01 0.000E+00 0.000E+00 0.000E+00 0.000E+00    1       18        0        0
     18  6.250E+01 0.000E+00 0.000E+00 0.000E+00 0.000E+00    1       19        0        0
     19  6.250E+01 0.000E+00 0.000E+00 0.000E+00 0.000E+00    1       20        0        0
     20  6.250E+01 0.000E+00 0.000E+00 0.000E+00 0.000E+00    1       21        0        0
     21  6.250E+01 0.000E+00 0.000E+00 0.000E+00 0.000E+00    1       22        0        0
     22  6.250E+01 0.000E+00 0.000E+00 0.000E+00 0.000E+00    1       23        0        0
     23  6.250E+01 0.000E+00 0.000E+00 0.000E+00 0.000E+00    1       24        0        0
     24  6.250E+01 0.000E+00 0.000E+00 0.000E+00 0.000E+00    1       25        0        0
     25  6.250E+01 0.000E+00 0.000E+00 0.000E+00 0.000E+00    1       26        0        0
     26  6.250E+01 0.000E+00 0.000E+00 0.000E+00 0.000E+00    1       27        0        0
     27  6.250E+01 0.000E+00 0.000E+00 0.000E+00 0.000E+00    1       28        0        0
     28  6.250E+01 0.000E+00 0.000E+00 0.000E+00 0.000E+00    1       29        0        0
     29  6.250E+01 0.000E+00 0.000E+00 0.000E+00 0.000E+00    1       30        0        0
     30  6.250E+01 0.000E+00 0.000E+00 0.000E+00 0.000E+00    1       31        0        0
     31  6.250E+01 0.000E+00 0.000E+00 0.000E+00 0.000E+00    1       32        0        0
     32  6.250E+01 0.000E+00 0.000E+00 0.000E+00 0.000E+00    1       33        0        0
     33  6.250E+01 0.000E+00 0.000E+00 0.000E+00 0.000E+00    1       34        0        0
     34  6.250E+01 0.000E+00 0.000E+00 0.000E+00 0.000E+00    1       35        0        0
     35  6.250E+01 0.000E+00 0.000E+00 0.000E+00 0.000E+00    1       36        0        0
     36  6.250E+01 0.000E+00 0.000E+00 0.000E+00 0.000E+00    1       37        0        0
     37  6.250E+01 0.000E+00 0.000E+00 0.000E+00 0.000E+00    1       38        0        0
     38  6.250E+01 0.000E+00 0.000E+00 0.000E+00 0.000E+00    1       39        0        0
     39  6.250E+01 0.000E+00 0.000E+00 0.000E+00 0.000E+00    1       40        0        0
     40  6.250E+01 0.000E+00 0.000E+00 0.000E+00 0.000E+00    1       41        0        0
     41  6.250E+01 0.000E+00 0.000E+00 0.000E+00 0.000E+00    1       42        0        0
     42  6.250E+01 0.000E+00 0.000E+00 0.000E+00 0.000E+00    1       43        0        0
     43  6.250E+01 0.000E+00 0.000E+00 0.000E+00 0.000E+00    1       44        0        0
     44  6.250E+01 0.000E+00 0.000E+00 0.000E+00 0.000E+00    1       45        0        0
     45  6.250E+01 0.000E+00 0.000E+00 0.000E+00 0.000E+00    1       46        0        0
     46  6.250E+01 0.000E+00 0.000E+00 0.000E+00 0.000E+00    1       47        0        0
     47  6.250E+01 0.000E+00 0.000E+00 0.000E+00 0.000E+00    1       48        0        0
     48  6.250E+01 0.000E+00 0.000E+00 0.000E+00 0.000E+00    1       49        0        0
     49  6.250E+01 0.000E+00 0.000E+00 0.000E+00 0.000E+00    1       50        0        0
     50  6.250E+01 0.000E+00 0.000E+00 0.000E+00 0.000E+00    1       51        0        0
     51  6.250E+01 0.000E+00 0.000E+00 0.000E+00 0.000E+00    1       52        0        0
     52  6.250E+01 0.000E+00 0.000E+00 0.000E+00 0.000E+00    1       53        0        0
     53  6.250E+01 0.000E+00 0.000E+00 0.000E+00 0.000E+00    1       54        0        0
     54  6.250E+01 0.000E+00 0.000E+00 0.000E+00 0.000E+00    1       55        0        0
     55  6.250E+01 0.000E+00 0.000E+00 0.000E+00 0.000E+00    1       56        0        0
     56  6.250E+01 0.000E+00 0.000E+00 0.000E+00 0.000E+00    1       57        0        0
     57  6.250E+01 0.000E+00 0.000E+00 0.000E+00 0.000E+00    1       58        0        0
     58  6.250E+01 0.000E+00 0.000E+00 0.000E+00 0.000E+00    1       59        0        0
     59  6.250E+01 0.000E+00 0.000E+00 0.000E+00 0.000E+00    1       60        0        0
     60  6.250E+01 0.000E+00 0.000E+00 0.000E+00 0.000E+00    1       61        0        0
     61  6.250E+01 0.000E+00 0.000E+00 0.000E+00 0.000E+00    1       62        0        0
     62  6.250E+01 0.000E+00 0.000E+00 0.000E+00 0.000E+00    1       63        0        0
     63  6.250E+01 0.000E+00 0.000E+00 0.000E+00 0.000E+00    1       64        0        0
     64  6.250E+01 0.000E+00 0.000E+00 0.000E+00 0.000E+00    1       65        0        0
     65  6.250E+01 0.000E+00 0.000E+00 0.000E+00 0.000E+00    1       66        0        0
     66  6.250E+01 0.000E+00 0.000E+00 0.000E+00 0.000E+00    1       67        0        0
     67  6.250E+01 0.000E+00 0.000E+00 0.000E+00 0.000E+00    1       68        0        0
     68  6.250E+01 0.000E+00 0.000E+00 0.000E+00 0.000E+00    1       69        0        0
     69  6.250E+01 0.000E+00 0.000E+00 0.000E+00 0.000E+00    1       70        0        0
     70  6.250E+01 0.000E+00 0.000E+00 0.000E+00 0.000E+00    1       71        0        0
     71  6.250E+01 0.000E+00 0.000E+00 0.000E+00 0.000E+00    1       72        0        0
     72  6.250E+01 0.000E+00 0.000E+00 0.000E+00 0.000E+00    1       73        0        0
     73  6.250E+01 0.000E+00 0.000E+00 0.000E+00 0.000E+00    1       74        0        0
     74  6.250E+01 0.000E+00 0.000E+00 0.000E+00 0.000E+00    1       75        0        0
     75  6.250E+01 0.000E+00 0.000E+00 0.000E+00 0.000E+00    1       76        0        0
     76  6.250E+01 0.000E+00 0.000E+00 0.000E+00 0.000E+00    1       77        0        0
     77  6.250E+01 0.000E+00 0.000E+00 0.000E+00 0.000E+00    1       78        0        0
     78  6.250E+01 0.000E+00 0.000E+00 0.000E+00 0.000E+00    1       79        0        0
     79  6.250E+01 0.000E+00 0.000E+00 0.000E+00 0.000E+00    1       80        0        0
     80  6.250E+01 0.000E+00 0.000E+00 0.000E+00 0.000E+00    1       81        0        0
     81  6.250E+01 0.000E+00 0.000E+00 0.000E+00 0.000E+00    1       82        0        0
     82  6.250E+01 0.000E+00 0.000E+00 0.000E+00 0.000E+00    1       83        0        0
     83  6.250E+01 0.000E+00 0.000E+00 0.000E+00 0.000E+00    1       84        0        0
     84  6.250E+01 0.000E+00 0.000E+00 0.000E+00 0.000E+00    1       85        0        0
     85  6.250E+01 0.000E+00 0.000E+00 0.000E+00 0.000E+00    1       86        0        0
     86  6.250E+01 0.000E+00 0.000E+00 0.000E+00 0.000E+00    1       87        0        0
     87  6.250E+01 0.000E+00 0.000E+00 0.000E+00 0.000E+00    1       88        0        0
     88  6.250E+01 0.000E+00 0.000E+00 0.000E+00 0.000E+00    1       89        0        0
     89  6.250E+01 0.000E+00 0.000E+00 0.000E+00 0.000E+00    1       90        0        0
     90  6.250E+01 0.000E+00 0.000E+00 0.000E+00 0.000E+00    1       91        0        0
     91  6.250E+01 0.000E+00 0.000E+00 0.000E+00 0.000E+00    1       92        0        0
     92  6.250E+01 0.000E+00 0.000E+00 0.000E+00 0.000E+00    1       93        0        0
     93  6.250E+01 0.000E+00 0.000E+00 0.000E+00 0.000E+00    1       94        0        0
     94  6.250E+01 0.000E+00 0.000E+00 0.000E+00 0.000E+00    1       95        0        0
     95  6.250E+01 0.000E+00 0.000E+00 0.000E+00 0.000E+00    1       96        0        0
     96  6.250E+01 0.000E+00 0.000E+00 0.000E+00 0.000E+00    1       97        0        0
     97  6.250E+01 0.000E+00 0.000E+00 0.000E+00 0.000E+00    1       98        0        0
     98  6.250E+01 0.000E+00 0.000E+00 0.000E+00 0.000E+00    1       99        0        0
     99  6.250E+01 0.000E+00 0.000E+00 0.000E+00 0.000E+00    1      100        0        0
    100  6.250E+01 0.000E+00 0.000E+00 0.000E+00 0.000E+00    1      101        0        0
    101  6.250E+01 0.000E+00 0.000E+00 0.000E+00 0.000E+00    1      102        0        0
    102  6.250E+01 0.000E+00 0.000E+00 0.000E+00 0.000E+00    1      103        0        0
    103  6.250E+01 0.000E+00 0.000E+00 0.000E+00 0.000E+00    1      104        0        0
    104  6.250E+01 0.000E+00 0.000E+00 0.000E+00 0.000E+00    1      105        0        0
    105  6.250E+01 0.000E+00 0.000E+00 0.000E+00 0.000E+00    1      106        0        0
    106  6.250E+01 0.000E+00 0.000E+00 0.000E+00 0.000E+00    1      107        0        0
    107  6.250E+01 0.000E+00 0.000E+00 0.000E+00 0.000E+00    1      108        0        0
    108  6.250E+01 0.000E+00 0.000E+00 0.000E+00 0.000E+00    1      109        0        0
    109  6.250E+01 0.000E+00 0.000E+00 0.000E+00 0.000E+00    1      110        0        0
    110  6.250E+01 0.000E+00 0.000E+00 0.000E+00 0.000E+00    1      111        0        0
    111  6.250E+01 0.000E+00 0.000E+00 0.000E+00 0.000E+00    1      112        0        0
    112  6.250E+01 0.000E+00 0.000E+00 0.000E+00 0.000E+00    1      113        0        0
    113  6.250E+01 0.000E+00 0.000E+00 0.000E+00 0.000E+00    1      114        0        0
    114  6.250E+01 0.000E+00 0.000E+00 0.000E+00 0.000E+00    1      115        0        0
    115  6.250E+01 0.000E+00 0.000E+00 0.000E+00 0.000E+00    1      116        0        0
    116  6.250E+01 0.000E+00 0.000E+00 0.000E+00 0.000E+00    1      117        0        0
    117  6.250E+01 0.000E+00 0.000E+00 0.000E+00 0.000E+00    1      118        0        0
    118  6.250E+01 0.000E+00 0.000E+00 0.000E+00 0.000E+00    1      119        0        0
    119  6.250E+01 0.000E+00 0.000E+00 0.000E+00 0.000E+00    1      120        0        0
    120  6.250E+01 0.000E+00 0.000E+00 0.000E+00 0.000E+00    1      121        0        0
    121  6.250E+01 0.000E+00 0.000E+00 0.000E+00 0.000E+00    1      122        0        0
    122  6.250E+01 0.000E+00 0.000E+00 0.000E+00 0.000E+00    1      123        0        0
    123  6.250E+01 0.000E+00 0.000E+00 0.000E+00 0.000E+00    1      124        0        0
    124  6.250E+01 0.000E+00 0.000E+00 0.000E+00 0.000E+00    1      125        0        0
    125  6.250E+01 0.000E+00 0.000E+00 0.000E+00 0.000E+00    1      126        0        0
    126  6.250E+01 0.000E+00 0.000E+00 0.000E+00 0.000E+00    1      127        0        0
    127  6.250E+01 0.000E+00 0.000E+00 0.000E+00 0.000E+00    1      128        0        0
    128  6.250E+01 0.000E+00 0.000E+00 0.000E+00 0.000E+00    1      129        0        0
    129  6.250E+01 0.000E+00 0.000E+00 0.000E+00 0.000E+00    1      130        0        0
    130  6.250E+01 0.000E+00 0.000E+00 0.000E+00 0.000E+00    1      131        0        0
    131  6.250E+01 0.000E+00 0.000E+00 0.000E+00 0.000E+00    1      132        0        0
    132  6.250E+01 0.000E+00 0.000E+00 0.000E+00 0.000E+00    1      133        0        0
    133  6.250E+01 0.000E+00 0.000E+00 0.000E+00 0.000E+00    1      134        0        0
    134  6.250E+01 0.000E+00 0.000E+00 0.000E+00 0.000E+00    1      135        0        0
    135  6.250E+01 0.000E+00 0.000E+00 0.000E+00 0.000E+00    1      136        0        0
    136  6.250E+01 0.000E+00 0.000E+00 0.000E+00 0.000E+00    1      137        0        0
    137  6.250E+01 0.000E+00 0.000E+00 0.000E+00 0.000E+00    1      138        0        0
    138  6.250E+01 0.000E+00 0.000E+00 0.000E+00 0.000E+00    1      139        0        0
    139  6.250E+01 0.000E+00 0.000E+00 0.000E+00 0.000E+00    1      140        0        0
    140  6.250E+01 0.000E+00 0.000E+00 0.000E+00 0.000E+00    1      141        0        0
    141  6.250E+01 0.000E+00 0.000E+00 0.000E+00 0.000E+00    1      142        0        0
    142  6.250E+01 0.000E+00 0.000E+00 0.000E+00 0.000E+00    1      143        0        0
    143  6.250E+01 0.000E+00 0.000E+00 0.000E+00 0.000E+00    1      144        0        0
    144  6.250E+01 0.000E+00 0.000E+00 0.000E+00 0.000E+00    1      145        0        0
    145  6.250E+01 0.000E+00 0.000E+00 0.000E+00 0.000E+00    1      146        0        0
    146  6.250E+01 0.000E+00 0.000E+00 0.000E+00 0.000E+00    1      147        0        0
    147  6.250E+01 0.000E+00 0.000E+00 0.000E+00 0.000E+00    1      148        0        0
    148  6.250E+01 0.000E+00 0.000E+00 0.000E+00 0.000E+00    1      149        0        0
    149  6.250E+01 0.000E+00 0.000E+00 0.000E+00 0.000E+00    1      150        0        0
    150  6.250E+01 0.000E+00 0.000E+00 0.000E+00 0.000E+00    1      151        0        0
    151  6.250E+01 0.000E+00 0.000E+00 0.000E+00 0.000E+00    1      152        0        0
    152  6.250E+01 0.000E+00 0.000E+00 0.000E+00 0.000E+00    1      153        0        0
    153  6.250E+01 0.000E+00 0.000E+00 0.000E+00 0.000E+00    1      154        0        0
    154  6.250E+01 0.000E+00 0.000E+00 0.000E+00 0.000E+00    1      155        0        0
    155  6.250E+01 0.000E+00 0.000E+00 0.000E+00 0.000E+00    1      156        0        0
    156  6.250E+01 0.000E+00 0.000E+00 0.000E+00 0.000E+00    1      157        0        0
    157  6.250E+01 0.000E+00 0.000E+00 0.000E+00 0.000E+00    1      158        0        0
    158  6.250E+01 0.000E+00 0.000E+00 0.000E+00 0.000E+00    1      159        0        0
    159  6.250E+01 0.000E+00 0.000E+00 0.000E+00 0.000E+00    1      160        0        0
    160  6.250E+01 0.000E+00 0.000E+00 0.000E+00 0.000E+00    1      161        0        0


         STREAMBED PROPERTIES AND STREAM DIMENSIONS

 SEGMENT     WIDTH OF STREAM     DEPTH OF STREAM    STREAM ROUGHNESS
    No.     UPPER     LOWER     UPPER     LOWER     CHANNEL      BANK

     1    5.000E+00 5.000E+00                      1.000E-01
     2    5.000E+00 5.000E+00                      1.000E-01
     3    5.000E+00 5.000E+00                      1.000E-01
     4    5.000E+00 5.000E+00                      1.000E-01
     5    5.000E+00 5.000E+00                      1.000E-01
     6    5.000E+00 5.000E+00                      1.000E-01
     7    5.000E+00 5.000E+00                      1.000E-01
     8    5.000E+00 5.000E+00                      1.000E-01
     9    5.000E+00 5.000E+00                      1.000E-01
    10    5.000E+00 5.000E+00                      1.000E-01
    11    5.000E+00 5.000E+00                      1.000E-01
    12    5.000E+00 5.000E+00                      1.000E-01
    13    5.000E+00 5.000E+00                      1.000E-01
    14    5.000E+00 5.000E+00                      1.000E-01
    15    5.000E+00 5.000E+00                      1.000E-01
    16    5.000E+00 5.000E+00                      1.000E-01
    17    5.000E+00 5.000E+00                      1.000E-01
    18    5.000E+00 5.000E+00                      1.000E-01
    19    5.000E+00 5.000E+00                      1.000E-01
    20    5.000E+00 5.000E+00                      1.000E-01
    21    5.000E+00 5.000E+00                      1.000E-01
    22    5.000E+00 5.000E+00                      1.000E-01
    23    5.000E+00 5.000E+00                      1.000E-01
    24    5.000E+00 5.000E+00                      1.000E-01
    25    5.000E+00 5.000E+00                      1.000E-01
    26    5.000E+00 5.000E+00                      1.000E-01
    27    5.000E+00 5.000E+00                      1.000E-01
    28    5.000E+00 5.000E+00                      1.000E-01
    29    5.000E+00 5.000E+00                      1.000E-01
    30    5.000E+00 5.000E+00                      1.000E-01
    31    5.000E+00 5.000E+00                      1.000E-01
    32    5.000E+00 5.000E+00                      1.000E-01
    33    5.000E+00 5.000E+00                      1.000E-01
    34    5.000E+00 5.000E+00                      1.000E-01
    35    5.000E+00 5.000E+00                      1.000E-01
    36    5.000E+00 5.000E+00                      1.000E-01
    37    5.000E+00 5.000E+00                      1.000E-01
    38    5.000E+00 5.000E+00                      1.000E-01
    39    5.000E+00 5.000E+00                      1.000E-01
    40    5.000E+00 5.000E+00                      1.000E-01
    41    5.000E+00 5.000E+00                      1.000E-01
    42    5.000E+00 5.000E+00                      1.000E-01
    43    5.000E+00 5.000E+00                      1.000E-01
    44    5.000E+00 5.000E+00                      1.000E-01
    45    5.000E+00 5.000E+00                      1.000E-01
    46    5.000E+00 5.000E+00                      1.000E-01
    47    5.000E+00 5.000E+00                      1.000E-01
    48    5.000E+00 5.000E+00                      1.000E-01
    49    5.000E+00 5.000E+00                      1.000E-01
    50    5.000E+00 5.000E+00                      1.000E-01
    51    5.000E+00 5.000E+00                      1.000E-01
    52    5.000E+00 5.000E+00                      1.000E-01
    53    5.000E+00 5.000E+00                      1.000E-01
    54    5.000E+00 5.000E+00                      1.000E-01
    55    5.000E+00 5.000E+00                      1.000E-01
    56    5.000E+00 5.000E+00                      1.000E-01
    57    5.000E+00 5.000E+00                      1.000E-01
    58    5.000E+00 5.000E+00                      1.000E-01
    59    5.000E+00 5.000E+00                      1.000E-01
    60    5.000E+00 5.000E+00                      1.000E-01
    61    5.000E+00 5.000E+00                      1.000E-01
    62    5.000E+00 5.000E+00                      1.000E-01
    63    5.000E+00 5.000E+00                      1.000E-01
    64    5.000E+00 5.000E+00                      1.000E-01
    65    5.000E+00 5.000E+00                      1.000E-01
    66    5.000E+00 5.000E+00                      1.000E-01
    67    5.000E+00 5.000E+00                      1.000E-01
    68    5.000E+00 5.000E+00                      1.000E-01
    69    5.000E+00 5.000E+00                      1.000E-01
    70    5.000E+00 5.000E+00                      1.000E-01
    71    5.000E+00 5.000E+00                      1.000E-01
    72    5.000E+00 5.000E+00                      1.000E-01
    73    5.000E+00 5.000E+00                      1.000E-01
    74    5.000E+00 5.000E+00                      1.000E-01
    75    5.000E+00 5.000E+00                      1.000E-01
    76    5.000E+00 5.000E+00                      1.000E-01
    77    5.000E+00 5.000E+00                      1.000E-01
    78    5.000E+00 5.000E+00                      1.000E-01
    79    5.000E+00 5.000E+00                      1.000E-01
    80    5.000E+00 5.000E+00                      1.000E-01
    81    5.000E+00 5.000E+00                      1.000E-01
    82    5.000E+00 5.000E+00                      1.000E-01
    83    5.000E+00 5.000E+00                      1.000E-01
    84    5.000E+00 5.000E+00                      1.000E-01
    85    5.000E+00 5.000E+00                      1.000E-01
    86    5.000E+00 5.000E+00                      1.000E-01
    87    5.000E+00 5.000E+00                      1.000E-01
    88    5.000E+00 5.000E+00                      1.000E-01
    89    5.000E+00 5.000E+00                      1.000E-01
    90    5.000E+00 5.000E+00                      1.000E-01
    91    5.000E+00 5.000E+00                      1.000E-01
    92    5.000E+00 5.000E+00                      1.000E-01
    93    5.000E+00 5.000E+00                      1.000E-01
    94    5.000E+00 5.000E+00                      1.000E-01
    95    5.000E+00 5.000E+00                      1.000E-01
    96    5.000E+00 5.000E+00                      1.000E-01
    97    5.000E+00 5.000E+00                      1.000E-01
    98    5.000E+00 5.000E+00                      1.000E-01
    99    5.000E+00 5.000E+00                      1.000E-01
   100    5.000E+00 5.000E+00                      1.000E-01
   101    5.000E+00 5.000E+00                      1.000E-01
   102    5.000E+00 5.000E+00                      1.000E-01
   103    5.000E+00 5.000E+00                      1.000E-01
   104    5.000E+00 5.000E+00                      1.000E-01
   105    5.000E+00 5.000E+00                      1.000E-01
   106    5.000E+00 5.000E+00                      1.000E-01
   107    5.000E+00 5.000E+00                      1.000E-01
   108    5.000E+00 5.000E+00                      1.000E-01
   109    5.000E+00 5.000E+00                      1.000E-01
   110    5.000E+00 5.000E+00                      1.000E-01
   111    5.000E+00 5.000E+00                      1.000E-01
   112    5.000E+00 5.000E+00                      1.000E-01
   113    5.000E+00 5.000E+00                      1.000E-01
   114    5.000E+00 5.000E+00                      1.000E-01
   115    5.000E+00 5.000E+00                      1.000E-01
   116    5.000E+00 5.000E+00                      1.000E-01
   117    5.000E+00 5.000E+00                      1.000E-01
   118    5.000E+00 5.000E+00                      1.000E-01
   119    5.000E+00 5.000E+00                      1.000E-01
   120    5.000E+00 5.000E+00                      1.000E-01
   121    5.000E+00 5.000E+00                      1.000E-01
   122    5.000E+00 5.000E+00                      1.000E-01
   123    5.000E+00 5.000E+00                      1.000E-01
   124    5.000E+00 5.000E+00                      1.000E-01
   125    5.000E+00 5.000E+00                      1.000E-01
   126    5.000E+00 5.000E+00                      1.000E-01
   127    5.000E+00 5.000E+00                      1.000E-01
   128    5.000E+00 5.000E+00                      1.000E-01
   129    5.000E+00 5.000E+00                      1.000E-01
   130    5.000E+00 5.000E+00                      1.000E-01
   131    5.000E+00 5.000E+00                      1.000E-01
   132    5.000E+00 5.000E+00                      1.000E-01
   133    5.000E+00 5.000E+00                      1.000E-01
   134    5.000E+00 5.000E+00                      1.000E-01
   135    5.000E+00 5.000E+00                      1.000E-01
   136    5.000E+00 5.000E+00                      1.000E-01
   137    5.000E+00 5.000E+00                      1.000E-01
   138    5.000E+00 5.000E+00                      1.000E-01
   139    5.000E+00 5.000E+00                      1.000E-01
   140    5.000E+00 5.000E+00                      1.000E-01
   141    5.000E+00 5.000E+00                      1.000E-01
   142    5.000E+00 5.000E+00                      1.000E-01
   143    5.000E+00 5.000E+00                      1.000E-01
   144    5.000E+00 5.000E+00                      1.000E-01
   145    5.000E+00 5.000E+00                      1.000E-01
   146    5.000E+00 5.000E+00                      1.000E-01
   147    5.000E+00 5.000E+00                      1.000E-01
   148    5.000E+00 5.000E+00                      1.000E-01
   149    5.000E+00 5.000E+00                      1.000E-01
   150    5.000E+00 5.000E+00                      1.000E-01
   151    5.000E+00 5.000E+00                      1.000E-01
   152    5.000E+00 5.000E+00                      1.000E-01
   153    5.000E+00 5.000E+00                      1.000E-01
   154    5.000E+00 5.000E+00                      1.000E-01
   155    5.000E+00 5.000E+00                      1.000E-01
   156    5.000E+00 5.000E+00                      1.000E-01
   157    5.000E+00 5.000E+00                      1.000E-01
   158    5.000E+00 5.000E+00                      1.000E-01
   159    5.000E+00 5.000E+00                      1.000E-01
   160    5.000E+00 5.000E+00                      1.000E-01



 
 SOLVING FOR HEAD 


 OUTER ITERATION SUMMARY
 -----------------------
 BT: Backtracking; LA: Linear Acceleration; UR: Under-relaxation

    Outer-Iteration  Inner-Iteration    Maximum Head Change  Maximum Head Change
        Number           Count               Value              Location
LA         1                7              -0.33080                  4092           GWF-node number
LA         2                5              -0.12644E-01              1094           GWF-node number
LA         3                3              -0.64489E-03              1393           GWF-node number
LA         4                1              -0.93700E-04              4368           GWF-node number


     4 CALLS TO SPARSE MATRIX SOLVER PACKAGE  IN FLOW TIME STEP   1 STRESS PERIOD  19

 TOTAL OF       4OUTER ITERATIONS
  MAXIMUM CHANGE FOR EACH ITERATION:
   MAX. CHANGE        NODE  MAX. CHANGE        NODE  MAX. CHANGE        NODE  MAX. CHANGE        NODE  MAX. CHANGE        NODE
 ------------------------------------------------------------------------------------------------------------------------------------
  -0.33080    ,       4092 -0.12644E-01,       1094 -0.64489E-03,       1393 -0.93700E-04,       4368

 OUTPUT CONTROL FOR STRESS PERIOD       19   TIME STEP        1
    SAVE HEAD FOR ALL LAYERS
    SAVE BUDGET
 UBDSV1U SAVING "         STORAGE" ON UNIT  50 AT TIME STEP      1, STRESS PERIOD     19
 UBDSV2U SAVING "   CONSTANT HEAD" ON UNIT  50 AT TIME STEP      1, STRESS PERIOD     19
 UBDSV1U SAVING "   FLOW JA FACE " ON UNIT  50 AT TIME STEP      1, STRESS PERIOD     19
 UBDSV4U SAVING "           WELLS" ON UNIT  50 AT TIME STEP      1, STRESS PERIOD     19
 UBDSV4U SAVING " HEAD DEP BOUNDS" ON UNIT  50 AT TIME STEP      1, STRESS PERIOD     19
 UBDSV3U SAVING "        RECHARGE" ON UNIT  50 AT TIME STEP      1, STRESS PERIOD     19
 UBDSV2U SAVING "  STREAM LEAKAGE" ON UNIT  50 AT TIME STEP      1, STRESS PERIOD     19




 HEAD WILL BE SAVED ON UNIT   51 AT END OF TIME STEP   1, STRESS PERIOD   19
1
  VOLUMETRIC BUDGET FOR ENTIRE MODEL AT END OF TIME STEP       1 IN STRESS PERIOD      19
  ---------------------------------------------------------------------------------------

     CUMULATIVE VOLUMES      L**3       RATES FOR THIS TIME STEP      L**3/T
     ------------------                 ------------------------

           IN:                                      IN:
           ---                                      ---
             STORAGE =      486897.4560               STORAGE =        2624.9515
       CONSTANT HEAD =           0.0000         CONSTANT HEAD =           0.0000
               WELLS =           0.0000                 WELLS =           0.0000
     HEAD DEP BOUNDS =      179863.2685       HEAD DEP BOUNDS =         367.1079
            RECHARGE =     1525345.7905              RECHARGE =        1309.8076
      STREAM LEAKAGE =       81681.8998        STREAM LEAKAGE =       5.5266E-02

            TOTAL IN =     2273788.4148              TOTAL IN =        4301.9223

          OUT:                                     OUT:
          ----                                     ----
             STORAGE =      492046.2221               STORAGE =           0.0000
       CONSTANT HEAD =           0.0000         CONSTANT HEAD =           0.0000
               WELLS =     1194729.1721                 WELLS =        3221.8242
     HEAD DEP BOUNDS =      302121.5828       HEAD DEP BOUNDS =         475.7126
            RECHARGE =           0.0000              RECHARGE =           0.0000
      STREAM LEAKAGE =      284899.2892        STREAM LEAKAGE =         604.6089

           TOTAL OUT =     2273796.2662             TOTAL OUT =        4302.1458

            IN - OUT =          -7.8514              IN - OUT =          -0.2236

 PERCENT DISCREPANCY =          -0.00     PERCENT DISCREPANCY =          -0.01






          TIME SUMMARY AT END OF TIME STEP         1 IN STRESS PERIOD        19
                    SECONDS     MINUTES      HOURS       DAYS        YEARS
                    -----------------------------------------------------------
   TIME STEP LENGTH 2.59200E+06  43200.      720.00      30.000     8.21355E-02
 STRESS PERIOD TIME 2.59200E+06  43200.      720.00      30.000     8.21355E-02
         TOTAL TIME 4.73472E+07 7.89120E+05  13152.      548.00      1.5003    
1
1
                            STRESS PERIOD NO.   20, LENGTH =   31.00000    
                            -----------------------------------------------

                              NUMBER OF TIME STEPS =     1

                               MULTIPLIER FOR DELT =     1.000

                            INITIAL TIME STEP SIZE =   31.00000    

 WEL -- WELL PACKAGE, VERSION 7, 5/2/2005 INPUT READ FROM UNIT   20

 WELL NO.      NODE       STRESS FACTOR         
 -----------------------------------------------
      1        3324      -608.0    
      2        3409      -608.0    
      3        3737      -608.0    
      4        3971      -608.0    
      5        4092      -608.0    
      6        4297      -608.0    

      6 WELLS

 GHB -- GENERAL-HEAD BOUNDARY PACKAGE, VERSION 7, 5/2/2005
         INPUT READ FROM UNIT   30

 BOUND NO.     NODE         STAGE         CONDUCTANCE         
 -------------------------------------------------------------
      1        1473       33.50           70.00    
      2        1474       33.50           70.00    
      3        1475       33.50           70.00    
      4        1476       33.50           70.00    
      5        1477       33.50           70.00    
      6        1478       33.50           70.00    
      7        1479       33.50           70.00    
      8        1480       33.50           70.00    
      9        1481       33.50           70.00    
     10        1482       33.50           70.00    
     11        2972       33.50           70.00    
     12        2973       33.50           70.00    
     13        2974       33.50           70.00    
     14        2975       33.50           70.00    
     15        2976       33.50           70.00    
     16        2977       33.50           70.00    
     17        2978       33.50           70.00    
     18        2979       33.50           70.00    
     19        2980       33.50           70.00    
     20        2981       33.50           70.00    
     21        4471       33.50           70.00    
     22        4472       33.50           70.00    
     23        4473       33.50           70.00    
     24        4474       33.50           70.00    
     25        4475       33.50           70.00    
     26        4476       33.50           70.00    
     27        4477       33.50           70.00    
     28        4478       33.50           70.00    
     29        4479       33.50           70.00    
     30        4480       33.50           70.00    
     31        2999       35.50           70.00    
     32        3000       35.50           70.00    
     33        3001       35.50           70.00    
     34        3002       35.50           70.00    
     35        3003       35.50           70.00    
     36        3004       35.50           70.00    
     37        3005       35.50           70.00    
     38        3006       35.50           70.00    
     39        3007       35.50           70.00    
     40        3008       35.50           70.00    
     41        3009       35.50           70.00    
     42        3010       35.50           70.00    
     43        3011       35.50           70.00    
     44        3012       35.50           70.00    
     45        3013       35.50           70.00    
     46        3023       35.50           4.375    
     47        3027       35.50           17.50    
     48        3028       35.50           70.00    
     49        3029       35.50           70.00    
     50        3030       35.50           70.00    

     50 GHB CELLS

 RCH -- RECHARGE PACKAGE, VERSION 7, 5/2/2005 INPUT READ FROM UNIT   31



                           RECHARGE
 READING ON UNIT   31 WITH FORMAT: (1499E15.6)         



 CLASSIFICATION & COUNT OF STREAM SEGMENTS BASED ON SOURCE OF INFLOW:

                HEADWATER     DIVERSION     RECEIVES TRIBUTARY FLOW
                ---------     ---------     -----------------------
                     1              0             159



                    INPUT DATA FOR EACH STREAM SEGMENT
 ---------------------------------------------------------------------------------------------

 SEGMENT    SEG.     INFLOW   OVERLAND   STREAM    STREAM   ICALC  OUTFLOW  DIVERSION PRIORITY
    NO.    LENGTH     RATE     RUNOFF      ET       PPT.    METH.  TO SEG.  FROM SEG.    NO.

      1  6.250E+01 3.584E+03 0.000E+00 0.000E+00 0.000E+00    1        2        0        0
      2  6.250E+01 0.000E+00 0.000E+00 0.000E+00 0.000E+00    1        3        0        0
      3  6.250E+01 0.000E+00 0.000E+00 0.000E+00 0.000E+00    1        4        0        0
      4  6.250E+01 0.000E+00 0.000E+00 0.000E+00 0.000E+00    1        5        0        0
      5  6.250E+01 0.000E+00 0.000E+00 0.000E+00 0.000E+00    1        6        0        0
      6  6.250E+01 0.000E+00 0.000E+00 0.000E+00 0.000E+00    1        7        0        0
      7  6.250E+01 0.000E+00 0.000E+00 0.000E+00 0.000E+00    1        8        0        0
      8  6.250E+01 0.000E+00 0.000E+00 0.000E+00 0.000E+00    1        9        0        0
      9  6.250E+01 0.000E+00 0.000E+00 0.000E+00 0.000E+00    1       10        0        0
     10  6.250E+01 0.000E+00 0.000E+00 0.000E+00 0.000E+00    1       11        0        0
     11  6.250E+01 0.000E+00 0.000E+00 0.000E+00 0.000E+00    1       12        0        0
     12  6.250E+01 0.000E+00 0.000E+00 0.000E+00 0.000E+00    1       13        0        0
     13  6.250E+01 0.000E+00 0.000E+00 0.000E+00 0.000E+00    1       14        0        0
     14  6.250E+01 0.000E+00 0.000E+00 0.000E+00 0.000E+00    1       15        0        0
     15  6.250E+01 0.000E+00 0.000E+00 0.000E+00 0.000E+00    1       16        0        0
     16  6.250E+01 0.000E+00 0.000E+00 0.000E+00 0.000E+00    1       17        0        0
     17  6.250E+01 0.000E+00 0.000E+00 0.000E+00 0.000E+00    1       18        0        0
     18  6.250E+01 0.000E+00 0.000E+00 0.000E+00 0.000E+00    1       19        0        0
     19  6.250E+01 0.000E+00 0.000E+00 0.000E+00 0.000E+00    1       20        0        0
     20  6.250E+01 0.000E+00 0.000E+00 0.000E+00 0.000E+00    1       21        0        0
     21  6.250E+01 0.000E+00 0.000E+00 0.000E+00 0.000E+00    1       22        0        0
     22  6.250E+01 0.000E+00 0.000E+00 0.000E+00 0.000E+00    1       23        0        0
     23  6.250E+01 0.000E+00 0.000E+00 0.000E+00 0.000E+00    1       24        0        0
     24  6.250E+01 0.000E+00 0.000E+00 0.000E+00 0.000E+00    1       25        0        0
     25  6.250E+01 0.000E+00 0.000E+00 0.000E+00 0.000E+00    1       26        0        0
     26  6.250E+01 0.000E+00 0.000E+00 0.000E+00 0.000E+00    1       27        0        0
     27  6.250E+01 0.000E+00 0.000E+00 0.000E+00 0.000E+00    1       28        0        0
     28  6.250E+01 0.000E+00 0.000E+00 0.000E+00 0.000E+00    1       29        0        0
     29  6.250E+01 0.000E+00 0.000E+00 0.000E+00 0.000E+00    1       30        0        0
     30  6.250E+01 0.000E+00 0.000E+00 0.000E+00 0.000E+00    1       31        0        0
     31  6.250E+01 0.000E+00 0.000E+00 0.000E+00 0.000E+00    1       32        0        0
     32  6.250E+01 0.000E+00 0.000E+00 0.000E+00 0.000E+00    1       33        0        0
     33  6.250E+01 0.000E+00 0.000E+00 0.000E+00 0.000E+00    1       34        0        0
     34  6.250E+01 0.000E+00 0.000E+00 0.000E+00 0.000E+00    1       35        0        0
     35  6.250E+01 0.000E+00 0.000E+00 0.000E+00 0.000E+00    1       36        0        0
     36  6.250E+01 0.000E+00 0.000E+00 0.000E+00 0.000E+00    1       37        0        0
     37  6.250E+01 0.000E+00 0.000E+00 0.000E+00 0.000E+00    1       38        0        0
     38  6.250E+01 0.000E+00 0.000E+00 0.000E+00 0.000E+00    1       39        0        0
     39  6.250E+01 0.000E+00 0.000E+00 0.000E+00 0.000E+00    1       40        0        0
     40  6.250E+01 0.000E+00 0.000E+00 0.000E+00 0.000E+00    1       41        0        0
     41  6.250E+01 0.000E+00 0.000E+00 0.000E+00 0.000E+00    1       42        0        0
     42  6.250E+01 0.000E+00 0.000E+00 0.000E+00 0.000E+00    1       43        0        0
     43  6.250E+01 0.000E+00 0.000E+00 0.000E+00 0.000E+00    1       44        0        0
     44  6.250E+01 0.000E+00 0.000E+00 0.000E+00 0.000E+00    1       45        0        0
     45  6.250E+01 0.000E+00 0.000E+00 0.000E+00 0.000E+00    1       46        0        0
     46  6.250E+01 0.000E+00 0.000E+00 0.000E+00 0.000E+00    1       47        0        0
     47  6.250E+01 0.000E+00 0.000E+00 0.000E+00 0.000E+00    1       48        0        0
     48  6.250E+01 0.000E+00 0.000E+00 0.000E+00 0.000E+00    1       49        0        0
     49  6.250E+01 0.000E+00 0.000E+00 0.000E+00 0.000E+00    1       50        0        0
     50  6.250E+01 0.000E+00 0.000E+00 0.000E+00 0.000E+00    1       51        0        0
     51  6.250E+01 0.000E+00 0.000E+00 0.000E+00 0.000E+00    1       52        0        0
     52  6.250E+01 0.000E+00 0.000E+00 0.000E+00 0.000E+00    1       53        0        0
     53  6.250E+01 0.000E+00 0.000E+00 0.000E+00 0.000E+00    1       54        0        0
     54  6.250E+01 0.000E+00 0.000E+00 0.000E+00 0.000E+00    1       55        0        0
     55  6.250E+01 0.000E+00 0.000E+00 0.000E+00 0.000E+00    1       56        0        0
     56  6.250E+01 0.000E+00 0.000E+00 0.000E+00 0.000E+00    1       57        0        0
     57  6.250E+01 0.000E+00 0.000E+00 0.000E+00 0.000E+00    1       58        0        0
     58  6.250E+01 0.000E+00 0.000E+00 0.000E+00 0.000E+00    1       59        0        0
     59  6.250E+01 0.000E+00 0.000E+00 0.000E+00 0.000E+00    1       60        0        0
     60  6.250E+01 0.000E+00 0.000E+00 0.000E+00 0.000E+00    1       61        0        0
     61  6.250E+01 0.000E+00 0.000E+00 0.000E+00 0.000E+00    1       62        0        0
     62  6.250E+01 0.000E+00 0.000E+00 0.000E+00 0.000E+00    1       63        0        0
     63  6.250E+01 0.000E+00 0.000E+00 0.000E+00 0.000E+00    1       64        0        0
     64  6.250E+01 0.000E+00 0.000E+00 0.000E+00 0.000E+00    1       65        0        0
     65  6.250E+01 0.000E+00 0.000E+00 0.000E+00 0.000E+00    1       66        0        0
     66  6.250E+01 0.000E+00 0.000E+00 0.000E+00 0.000E+00    1       67        0        0
     67  6.250E+01 0.000E+00 0.000E+00 0.000E+00 0.000E+00    1       68        0        0
     68  6.250E+01 0.000E+00 0.000E+00 0.000E+00 0.000E+00    1       69        0        0
     69  6.250E+01 0.000E+00 0.000E+00 0.000E+00 0.000E+00    1       70        0        0
     70  6.250E+01 0.000E+00 0.000E+00 0.000E+00 0.000E+00    1       71        0        0
     71  6.250E+01 0.000E+00 0.000E+00 0.000E+00 0.000E+00    1       72        0        0
     72  6.250E+01 0.000E+00 0.000E+00 0.000E+00 0.000E+00    1       73        0        0
     73  6.250E+01 0.000E+00 0.000E+00 0.000E+00 0.000E+00    1       74        0        0
     74  6.250E+01 0.000E+00 0.000E+00 0.000E+00 0.000E+00    1       75        0        0
     75  6.250E+01 0.000E+00 0.000E+00 0.000E+00 0.000E+00    1       76        0        0
     76  6.250E+01 0.000E+00 0.000E+00 0.000E+00 0.000E+00    1       77        0        0
     77  6.250E+01 0.000E+00 0.000E+00 0.000E+00 0.000E+00    1       78        0        0
     78  6.250E+01 0.000E+00 0.000E+00 0.000E+00 0.000E+00    1       79        0        0
     79  6.250E+01 0.000E+00 0.000E+00 0.000E+00 0.000E+00    1       80        0        0
     80  6.250E+01 0.000E+00 0.000E+00 0.000E+00 0.000E+00    1       81        0        0
     81  6.250E+01 0.000E+00 0.000E+00 0.000E+00 0.000E+00    1       82        0        0
     82  6.250E+01 0.000E+00 0.000E+00 0.000E+00 0.000E+00    1       83        0        0
     83  6.250E+01 0.000E+00 0.000E+00 0.000E+00 0.000E+00    1       84        0        0
     84  6.250E+01 0.000E+00 0.000E+00 0.000E+00 0.000E+00    1       85        0        0
     85  6.250E+01 0.000E+00 0.000E+00 0.000E+00 0.000E+00    1       86        0        0
     86  6.250E+01 0.000E+00 0.000E+00 0.000E+00 0.000E+00    1       87        0        0
     87  6.250E+01 0.000E+00 0.000E+00 0.000E+00 0.000E+00    1       88        0        0
     88  6.250E+01 0.000E+00 0.000E+00 0.000E+00 0.000E+00    1       89        0        0
     89  6.250E+01 0.000E+00 0.000E+00 0.000E+00 0.000E+00    1       90        0        0
     90  6.250E+01 0.000E+00 0.000E+00 0.000E+00 0.000E+00    1       91        0        0
     91  6.250E+01 0.000E+00 0.000E+00 0.000E+00 0.000E+00    1       92        0        0
     92  6.250E+01 0.000E+00 0.000E+00 0.000E+00 0.000E+00    1       93        0        0
     93  6.250E+01 0.000E+00 0.000E+00 0.000E+00 0.000E+00    1       94        0        0
     94  6.250E+01 0.000E+00 0.000E+00 0.000E+00 0.000E+00    1       95        0        0
     95  6.250E+01 0.000E+00 0.000E+00 0.000E+00 0.000E+00    1       96        0        0
     96  6.250E+01 0.000E+00 0.000E+00 0.000E+00 0.000E+00    1       97        0        0
     97  6.250E+01 0.000E+00 0.000E+00 0.000E+00 0.000E+00    1       98        0        0
     98  6.250E+01 0.000E+00 0.000E+00 0.000E+00 0.000E+00    1       99        0        0
     99  6.250E+01 0.000E+00 0.000E+00 0.000E+00 0.000E+00    1      100        0        0
    100  6.250E+01 0.000E+00 0.000E+00 0.000E+00 0.000E+00    1      101        0        0
    101  6.250E+01 0.000E+00 0.000E+00 0.000E+00 0.000E+00    1      102        0        0
    102  6.250E+01 0.000E+00 0.000E+00 0.000E+00 0.000E+00    1      103        0        0
    103  6.250E+01 0.000E+00 0.000E+00 0.000E+00 0.000E+00    1      104        0        0
    104  6.250E+01 0.000E+00 0.000E+00 0.000E+00 0.000E+00    1      105        0        0
    105  6.250E+01 0.000E+00 0.000E+00 0.000E+00 0.000E+00    1      106        0        0
    106  6.250E+01 0.000E+00 0.000E+00 0.000E+00 0.000E+00    1      107        0        0
    107  6.250E+01 0.000E+00 0.000E+00 0.000E+00 0.000E+00    1      108        0        0
    108  6.250E+01 0.000E+00 0.000E+00 0.000E+00 0.000E+00    1      109        0        0
    109  6.250E+01 0.000E+00 0.000E+00 0.000E+00 0.000E+00    1      110        0        0
    110  6.250E+01 0.000E+00 0.000E+00 0.000E+00 0.000E+00    1      111        0        0
    111  6.250E+01 0.000E+00 0.000E+00 0.000E+00 0.000E+00    1      112        0        0
    112  6.250E+01 0.000E+00 0.000E+00 0.000E+00 0.000E+00    1      113        0        0
    113  6.250E+01 0.000E+00 0.000E+00 0.000E+00 0.000E+00    1      114        0        0
    114  6.250E+01 0.000E+00 0.000E+00 0.000E+00 0.000E+00    1      115        0        0
    115  6.250E+01 0.000E+00 0.000E+00 0.000E+00 0.000E+00    1      116        0        0
    116  6.250E+01 0.000E+00 0.000E+00 0.000E+00 0.000E+00    1      117        0        0
    117  6.250E+01 0.000E+00 0.000E+00 0.000E+00 0.000E+00    1      118        0        0
    118  6.250E+01 0.000E+00 0.000E+00 0.000E+00 0.000E+00    1      119        0        0
    119  6.250E+01 0.000E+00 0.000E+00 0.000E+00 0.000E+00    1      120        0        0
    120  6.250E+01 0.000E+00 0.000E+00 0.000E+00 0.000E+00    1      121        0        0
    121  6.250E+01 0.000E+00 0.000E+00 0.000E+00 0.000E+00    1      122        0        0
    122  6.250E+01 0.000E+00 0.000E+00 0.000E+00 0.000E+00    1      123        0        0
    123  6.250E+01 0.000E+00 0.000E+00 0.000E+00 0.000E+00    1      124        0        0
    124  6.250E+01 0.000E+00 0.000E+00 0.000E+00 0.000E+00    1      125        0        0
    125  6.250E+01 0.000E+00 0.000E+00 0.000E+00 0.000E+00    1      126        0        0
    126  6.250E+01 0.000E+00 0.000E+00 0.000E+00 0.000E+00    1      127        0        0
    127  6.250E+01 0.000E+00 0.000E+00 0.000E+00 0.000E+00    1      128        0        0
    128  6.250E+01 0.000E+00 0.000E+00 0.000E+00 0.000E+00    1      129        0        0
    129  6.250E+01 0.000E+00 0.000E+00 0.000E+00 0.000E+00    1      130        0        0
    130  6.250E+01 0.000E+00 0.000E+00 0.000E+00 0.000E+00    1      131        0        0
    131  6.250E+01 0.000E+00 0.000E+00 0.000E+00 0.000E+00    1      132        0        0
    132  6.250E+01 0.000E+00 0.000E+00 0.000E+00 0.000E+00    1      133        0        0
    133  6.250E+01 0.000E+00 0.000E+00 0.000E+00 0.000E+00    1      134        0        0
    134  6.250E+01 0.000E+00 0.000E+00 0.000E+00 0.000E+00    1      135        0        0
    135  6.250E+01 0.000E+00 0.000E+00 0.000E+00 0.000E+00    1      136        0        0
    136  6.250E+01 0.000E+00 0.000E+00 0.000E+00 0.000E+00    1      137        0        0
    137  6.250E+01 0.000E+00 0.000E+00 0.000E+00 0.000E+00    1      138        0        0
    138  6.250E+01 0.000E+00 0.000E+00 0.000E+00 0.000E+00    1      139        0        0
    139  6.250E+01 0.000E+00 0.000E+00 0.000E+00 0.000E+00    1      140        0        0
    140  6.250E+01 0.000E+00 0.000E+00 0.000E+00 0.000E+00    1      141        0        0
    141  6.250E+01 0.000E+00 0.000E+00 0.000E+00 0.000E+00    1      142        0        0
    142  6.250E+01 0.000E+00 0.000E+00 0.000E+00 0.000E+00    1      143        0        0
    143  6.250E+01 0.000E+00 0.000E+00 0.000E+00 0.000E+00    1      144        0        0
    144  6.250E+01 0.000E+00 0.000E+00 0.000E+00 0.000E+00    1      145        0        0
    145  6.250E+01 0.000E+00 0.000E+00 0.000E+00 0.000E+00    1      146        0        0
    146  6.250E+01 0.000E+00 0.000E+00 0.000E+00 0.000E+00    1      147        0        0
    147  6.250E+01 0.000E+00 0.000E+00 0.000E+00 0.000E+00    1      148        0        0
    148  6.250E+01 0.000E+00 0.000E+00 0.000E+00 0.000E+00    1      149        0        0
    149  6.250E+01 0.000E+00 0.000E+00 0.000E+00 0.000E+00    1      150        0        0
    150  6.250E+01 0.000E+00 0.000E+00 0.000E+00 0.000E+00    1      151        0        0
    151  6.250E+01 0.000E+00 0.000E+00 0.000E+00 0.000E+00    1      152        0        0
    152  6.250E+01 0.000E+00 0.000E+00 0.000E+00 0.000E+00    1      153        0        0
    153  6.250E+01 0.000E+00 0.000E+00 0.000E+00 0.000E+00    1      154        0        0
    154  6.250E+01 0.000E+00 0.000E+00 0.000E+00 0.000E+00    1      155        0        0
    155  6.250E+01 0.000E+00 0.000E+00 0.000E+00 0.000E+00    1      156        0        0
    156  6.250E+01 0.000E+00 0.000E+00 0.000E+00 0.000E+00    1      157        0        0
    157  6.250E+01 0.000E+00 0.000E+00 0.000E+00 0.000E+00    1      158        0        0
    158  6.250E+01 0.000E+00 0.000E+00 0.000E+00 0.000E+00    1      159        0        0
    159  6.250E+01 0.000E+00 0.000E+00 0.000E+00 0.000E+00    1      160        0        0
    160  6.250E+01 0.000E+00 0.000E+00 0.000E+00 0.000E+00    1      161        0        0


         STREAMBED PROPERTIES AND STREAM DIMENSIONS

 SEGMENT     WIDTH OF STREAM     DEPTH OF STREAM    STREAM ROUGHNESS
    No.     UPPER     LOWER     UPPER     LOWER     CHANNEL      BANK

     1    5.000E+00 5.000E+00                      1.000E-01
     2    5.000E+00 5.000E+00                      1.000E-01
     3    5.000E+00 5.000E+00                      1.000E-01
     4    5.000E+00 5.000E+00                      1.000E-01
     5    5.000E+00 5.000E+00                      1.000E-01
     6    5.000E+00 5.000E+00                      1.000E-01
     7    5.000E+00 5.000E+00                      1.000E-01
     8    5.000E+00 5.000E+00                      1.000E-01
     9    5.000E+00 5.000E+00                      1.000E-01
    10    5.000E+00 5.000E+00                      1.000E-01
    11    5.000E+00 5.000E+00                      1.000E-01
    12    5.000E+00 5.000E+00                      1.000E-01
    13    5.000E+00 5.000E+00                      1.000E-01
    14    5.000E+00 5.000E+00                      1.000E-01
    15    5.000E+00 5.000E+00                      1.000E-01
    16    5.000E+00 5.000E+00                      1.000E-01
    17    5.000E+00 5.000E+00                      1.000E-01
    18    5.000E+00 5.000E+00                      1.000E-01
    19    5.000E+00 5.000E+00                      1.000E-01
    20    5.000E+00 5.000E+00                      1.000E-01
    21    5.000E+00 5.000E+00                      1.000E-01
    22    5.000E+00 5.000E+00                      1.000E-01
    23    5.000E+00 5.000E+00                      1.000E-01
    24    5.000E+00 5.000E+00                      1.000E-01
    25    5.000E+00 5.000E+00                      1.000E-01
    26    5.000E+00 5.000E+00                      1.000E-01
    27    5.000E+00 5.000E+00                      1.000E-01
    28    5.000E+00 5.000E+00                      1.000E-01
    29    5.000E+00 5.000E+00                      1.000E-01
    30    5.000E+00 5.000E+00                      1.000E-01
    31    5.000E+00 5.000E+00                      1.000E-01
    32    5.000E+00 5.000E+00                      1.000E-01
    33    5.000E+00 5.000E+00                      1.000E-01
    34    5.000E+00 5.000E+00                      1.000E-01
    35    5.000E+00 5.000E+00                      1.000E-01
    36    5.000E+00 5.000E+00                      1.000E-01
    37    5.000E+00 5.000E+00                      1.000E-01
    38    5.000E+00 5.000E+00                      1.000E-01
    39    5.000E+00 5.000E+00                      1.000E-01
    40    5.000E+00 5.000E+00                      1.000E-01
    41    5.000E+00 5.000E+00                      1.000E-01
    42    5.000E+00 5.000E+00                      1.000E-01
    43    5.000E+00 5.000E+00                      1.000E-01
    44    5.000E+00 5.000E+00                      1.000E-01
    45    5.000E+00 5.000E+00                      1.000E-01
    46    5.000E+00 5.000E+00                      1.000E-01
    47    5.000E+00 5.000E+00                      1.000E-01
    48    5.000E+00 5.000E+00                      1.000E-01
    49    5.000E+00 5.000E+00                      1.000E-01
    50    5.000E+00 5.000E+00                      1.000E-01
    51    5.000E+00 5.000E+00                      1.000E-01
    52    5.000E+00 5.000E+00                      1.000E-01
    53    5.000E+00 5.000E+00                      1.000E-01
    54    5.000E+00 5.000E+00                      1.000E-01
    55    5.000E+00 5.000E+00                      1.000E-01
    56    5.000E+00 5.000E+00                      1.000E-01
    57    5.000E+00 5.000E+00                      1.000E-01
    58    5.000E+00 5.000E+00                      1.000E-01
    59    5.000E+00 5.000E+00                      1.000E-01
    60    5.000E+00 5.000E+00                      1.000E-01
    61    5.000E+00 5.000E+00                      1.000E-01
    62    5.000E+00 5.000E+00                      1.000E-01
    63    5.000E+00 5.000E+00                      1.000E-01
    64    5.000E+00 5.000E+00                      1.000E-01
    65    5.000E+00 5.000E+00                      1.000E-01
    66    5.000E+00 5.000E+00                      1.000E-01
    67    5.000E+00 5.000E+00                      1.000E-01
    68    5.000E+00 5.000E+00                      1.000E-01
    69    5.000E+00 5.000E+00                      1.000E-01
    70    5.000E+00 5.000E+00                      1.000E-01
    71    5.000E+00 5.000E+00                      1.000E-01
    72    5.000E+00 5.000E+00                      1.000E-01
    73    5.000E+00 5.000E+00                      1.000E-01
    74    5.000E+00 5.000E+00                      1.000E-01
    75    5.000E+00 5.000E+00                      1.000E-01
    76    5.000E+00 5.000E+00                      1.000E-01
    77    5.000E+00 5.000E+00                      1.000E-01
    78    5.000E+00 5.000E+00                      1.000E-01
    79    5.000E+00 5.000E+00                      1.000E-01
    80    5.000E+00 5.000E+00                      1.000E-01
    81    5.000E+00 5.000E+00                      1.000E-01
    82    5.000E+00 5.000E+00                      1.000E-01
    83    5.000E+00 5.000E+00                      1.000E-01
    84    5.000E+00 5.000E+00                      1.000E-01
    85    5.000E+00 5.000E+00                      1.000E-01
    86    5.000E+00 5.000E+00                      1.000E-01
    87    5.000E+00 5.000E+00                      1.000E-01
    88    5.000E+00 5.000E+00                      1.000E-01
    89    5.000E+00 5.000E+00                      1.000E-01
    90    5.000E+00 5.000E+00                      1.000E-01
    91    5.000E+00 5.000E+00                      1.000E-01
    92    5.000E+00 5.000E+00                      1.000E-01
    93    5.000E+00 5.000E+00                      1.000E-01
    94    5.000E+00 5.000E+00                      1.000E-01
    95    5.000E+00 5.000E+00                      1.000E-01
    96    5.000E+00 5.000E+00                      1.000E-01
    97    5.000E+00 5.000E+00                      1.000E-01
    98    5.000E+00 5.000E+00                      1.000E-01
    99    5.000E+00 5.000E+00                      1.000E-01
   100    5.000E+00 5.000E+00                      1.000E-01
   101    5.000E+00 5.000E+00                      1.000E-01
   102    5.000E+00 5.000E+00                      1.000E-01
   103    5.000E+00 5.000E+00                      1.000E-01
   104    5.000E+00 5.000E+00                      1.000E-01
   105    5.000E+00 5.000E+00                      1.000E-01
   106    5.000E+00 5.000E+00                      1.000E-01
   107    5.000E+00 5.000E+00                      1.000E-01
   108    5.000E+00 5.000E+00                      1.000E-01
   109    5.000E+00 5.000E+00                      1.000E-01
   110    5.000E+00 5.000E+00                      1.000E-01
   111    5.000E+00 5.000E+00                      1.000E-01
   112    5.000E+00 5.000E+00                      1.000E-01
   113    5.000E+00 5.000E+00                      1.000E-01
   114    5.000E+00 5.000E+00                      1.000E-01
   115    5.000E+00 5.000E+00                      1.000E-01
   116    5.000E+00 5.000E+00                      1.000E-01
   117    5.000E+00 5.000E+00                      1.000E-01
   118    5.000E+00 5.000E+00                      1.000E-01
   119    5.000E+00 5.000E+00                      1.000E-01
   120    5.000E+00 5.000E+00                      1.000E-01
   121    5.000E+00 5.000E+00                      1.000E-01
   122    5.000E+00 5.000E+00                      1.000E-01
   123    5.000E+00 5.000E+00                      1.000E-01
   124    5.000E+00 5.000E+00                      1.000E-01
   125    5.000E+00 5.000E+00                      1.000E-01
   126    5.000E+00 5.000E+00                      1.000E-01
   127    5.000E+00 5.000E+00                      1.000E-01
   128    5.000E+00 5.000E+00                      1.000E-01
   129    5.000E+00 5.000E+00                      1.000E-01
   130    5.000E+00 5.000E+00                      1.000E-01
   131    5.000E+00 5.000E+00                      1.000E-01
   132    5.000E+00 5.000E+00                      1.000E-01
   133    5.000E+00 5.000E+00                      1.000E-01
   134    5.000E+00 5.000E+00                      1.000E-01
   135    5.000E+00 5.000E+00                      1.000E-01
   136    5.000E+00 5.000E+00                      1.000E-01
   137    5.000E+00 5.000E+00                      1.000E-01
   138    5.000E+00 5.000E+00                      1.000E-01
   139    5.000E+00 5.000E+00                      1.000E-01
   140    5.000E+00 5.000E+00                      1.000E-01
   141    5.000E+00 5.000E+00                      1.000E-01
   142    5.000E+00 5.000E+00                      1.000E-01
   143    5.000E+00 5.000E+00                      1.000E-01
   144    5.000E+00 5.000E+00                      1.000E-01
   145    5.000E+00 5.000E+00                      1.000E-01
   146    5.000E+00 5.000E+00                      1.000E-01
   147    5.000E+00 5.000E+00                      1.000E-01
   148    5.000E+00 5.000E+00                      1.000E-01
   149    5.000E+00 5.000E+00                      1.000E-01
   150    5.000E+00 5.000E+00                      1.000E-01
   151    5.000E+00 5.000E+00                      1.000E-01
   152    5.000E+00 5.000E+00                      1.000E-01
   153    5.000E+00 5.000E+00                      1.000E-01
   154    5.000E+00 5.000E+00                      1.000E-01
   155    5.000E+00 5.000E+00                      1.000E-01
   156    5.000E+00 5.000E+00                      1.000E-01
   157    5.000E+00 5.000E+00                      1.000E-01
   158    5.000E+00 5.000E+00                      1.000E-01
   159    5.000E+00 5.000E+00                      1.000E-01
   160    5.000E+00 5.000E+00                      1.000E-01



 
 SOLVING FOR HEAD 


 OUTER ITERATION SUMMARY
 -----------------------
 BT: Backtracking; LA: Linear Acceleration; UR: Under-relaxation

    Outer-Iteration  Inner-Iteration    Maximum Head Change  Maximum Head Change
        Number           Count               Value              Location
LA         1                7              -0.30342                  4092           GWF-node number
LA         2                5              -0.17315E-01              1094           GWF-node number
LA         3                2              -0.76845E-03              1425           GWF-node number
LA         4                1              -0.51896E-04              1427           GWF-node number


     4 CALLS TO SPARSE MATRIX SOLVER PACKAGE  IN FLOW TIME STEP   1 STRESS PERIOD  20

 TOTAL OF       4OUTER ITERATIONS
  MAXIMUM CHANGE FOR EACH ITERATION:
   MAX. CHANGE        NODE  MAX. CHANGE        NODE  MAX. CHANGE        NODE  MAX. CHANGE        NODE  MAX. CHANGE        NODE
 ------------------------------------------------------------------------------------------------------------------------------------
  -0.30342    ,       4092 -0.17315E-01,       1094 -0.76845E-03,       1425 -0.51896E-04,       1427

 OUTPUT CONTROL FOR STRESS PERIOD       20   TIME STEP        1
    SAVE HEAD FOR ALL LAYERS
    SAVE BUDGET
 UBDSV1U SAVING "         STORAGE" ON UNIT  50 AT TIME STEP      1, STRESS PERIOD     20
 UBDSV2U SAVING "   CONSTANT HEAD" ON UNIT  50 AT TIME STEP      1, STRESS PERIOD     20
 UBDSV1U SAVING "   FLOW JA FACE " ON UNIT  50 AT TIME STEP      1, STRESS PERIOD     20
 UBDSV4U SAVING "           WELLS" ON UNIT  50 AT TIME STEP      1, STRESS PERIOD     20
 UBDSV4U SAVING " HEAD DEP BOUNDS" ON UNIT  50 AT TIME STEP      1, STRESS PERIOD     20
 UBDSV3U SAVING "        RECHARGE" ON UNIT  50 AT TIME STEP      1, STRESS PERIOD     20
 UBDSV2U SAVING "  STREAM LEAKAGE" ON UNIT  50 AT TIME STEP      1, STRESS PERIOD     20




 HEAD WILL BE SAVED ON UNIT   51 AT END OF TIME STEP   1, STRESS PERIOD   20
1
  VOLUMETRIC BUDGET FOR ENTIRE MODEL AT END OF TIME STEP       1 IN STRESS PERIOD      20
  ---------------------------------------------------------------------------------------

     CUMULATIVE VOLUMES      L**3       RATES FOR THIS TIME STEP      L**3/T
     ------------------                 ------------------------

           IN:                                      IN:
           ---                                      ---
             STORAGE =      572010.2720               STORAGE =        2745.5747
       CONSTANT HEAD =           0.0000         CONSTANT HEAD =           0.0000
               WELLS =           0.0000                 WELLS =           0.0000
     HEAD DEP BOUNDS =      195499.1394       HEAD DEP BOUNDS =         504.3829
            RECHARGE =     1554108.6384              RECHARGE =         927.8338
      STREAM LEAKAGE =       83316.8135        STREAM LEAKAGE =          52.7392

            TOTAL IN =     2404934.8632              TOTAL IN =        4230.5306

          OUT:                                     OUT:
          ----                                     ----
             STORAGE =      492046.2221               STORAGE =           0.0000
       CONSTANT HEAD =           0.0000         CONSTANT HEAD =           0.0000
               WELLS =     1307823.5750                 WELLS =        3648.2065
     HEAD DEP BOUNDS =      311100.3892       HEAD DEP BOUNDS =         289.6389
            RECHARGE =           0.0000              RECHARGE =           0.0000
      STREAM LEAKAGE =      293974.4096        STREAM LEAKAGE =         292.7458

           TOTAL OUT =     2404944.5958             TOTAL OUT =        4230.5913

            IN - OUT =          -9.7326              IN - OUT =      -6.0682E-02

 PERCENT DISCREPANCY =          -0.00     PERCENT DISCREPANCY =          -0.00






          TIME SUMMARY AT END OF TIME STEP         1 IN STRESS PERIOD        20
                    SECONDS     MINUTES      HOURS       DAYS        YEARS
                    -----------------------------------------------------------
   TIME STEP LENGTH 2.67840E+06  44640.      744.00      31.000     8.48734E-02
 STRESS PERIOD TIME 2.67840E+06  44640.      744.00      31.000     8.48734E-02
         TOTAL TIME 5.00256E+07 8.33760E+05  13896.      579.00      1.5852    
1
1
                            STRESS PERIOD NO.   21, LENGTH =   31.00000    
                            -----------------------------------------------

                              NUMBER OF TIME STEPS =     1

                               MULTIPLIER FOR DELT =     1.000

                            INITIAL TIME STEP SIZE =   31.00000    

 WEL -- WELL PACKAGE, VERSION 7, 5/2/2005 INPUT READ FROM UNIT   20

 WELL NO.      NODE       STRESS FACTOR         
 -----------------------------------------------
      1        3324      -611.2    
      2        3409      -611.2    
      3        3737      -611.2    
      4        3971      -611.2    
      5        4092      -611.2    
      6        4297      -611.2    

      6 WELLS

 GHB -- GENERAL-HEAD BOUNDARY PACKAGE, VERSION 7, 5/2/2005
         INPUT READ FROM UNIT   30

 BOUND NO.     NODE         STAGE         CONDUCTANCE         
 -------------------------------------------------------------
      1        1473       33.50           70.00    
      2        1474       33.50           70.00    
      3        1475       33.50           70.00    
      4        1476       33.50           70.00    
      5        1477       33.50           70.00    
      6        1478       33.50           70.00    
      7        1479       33.50           70.00    
      8        1480       33.50           70.00    
      9        1481       33.50           70.00    
     10        1482       33.50           70.00    
     11        2972       33.50           70.00    
     12        2973       33.50           70.00    
     13        2974       33.50           70.00    
     14        2975       33.50           70.00    
     15        2976       33.50           70.00    
     16        2977       33.50           70.00    
     17        2978       33.50           70.00    
     18        2979       33.50           70.00    
     19        2980       33.50           70.00    
     20        2981       33.50           70.00    
     21        4471       33.50           70.00    
     22        4472       33.50           70.00    
     23        4473       33.50           70.00    
     24        4474       33.50           70.00    
     25        4475       33.50           70.00    
     26        4476       33.50           70.00    
     27        4477       33.50           70.00    
     28        4478       33.50           70.00    
     29        4479       33.50           70.00    
     30        4480       33.50           70.00    
     31        2999       35.50           70.00    
     32        3000       35.50           70.00    
     33        3001       35.50           70.00    
     34        3002       35.50           70.00    
     35        3003       35.50           70.00    
     36        3004       35.50           70.00    
     37        3005       35.50           70.00    
     38        3006       35.50           70.00    
     39        3007       35.50           70.00    
     40        3008       35.50           70.00    
     41        3009       35.50           70.00    
     42        3010       35.50           70.00    
     43        3011       35.50           70.00    
     44        3012       35.50           70.00    
     45        3013       35.50           70.00    
     46        3023       35.50           4.375    
     47        3027       35.50           17.50    
     48        3028       35.50           70.00    
     49        3029       35.50           70.00    
     50        3030       35.50           70.00    

     50 GHB CELLS

 RCH -- RECHARGE PACKAGE, VERSION 7, 5/2/2005 INPUT READ FROM UNIT   31



                           RECHARGE
 READING ON UNIT   31 WITH FORMAT: (1499E15.6)         



 CLASSIFICATION & COUNT OF STREAM SEGMENTS BASED ON SOURCE OF INFLOW:

                HEADWATER     DIVERSION     RECEIVES TRIBUTARY FLOW
                ---------     ---------     -----------------------
                     1              0             159



                    INPUT DATA FOR EACH STREAM SEGMENT
 ---------------------------------------------------------------------------------------------

 SEGMENT    SEG.     INFLOW   OVERLAND   STREAM    STREAM   ICALC  OUTFLOW  DIVERSION PRIORITY
    NO.    LENGTH     RATE     RUNOFF      ET       PPT.    METH.  TO SEG.  FROM SEG.    NO.

      1  6.250E+01 3.977E+03 0.000E+00 0.000E+00 0.000E+00    1        2        0        0
      2  6.250E+01 0.000E+00 0.000E+00 0.000E+00 0.000E+00    1        3        0        0
      3  6.250E+01 0.000E+00 0.000E+00 0.000E+00 0.000E+00    1        4        0        0
      4  6.250E+01 0.000E+00 0.000E+00 0.000E+00 0.000E+00    1        5        0        0
      5  6.250E+01 0.000E+00 0.000E+00 0.000E+00 0.000E+00    1        6        0        0
      6  6.250E+01 0.000E+00 0.000E+00 0.000E+00 0.000E+00    1        7        0        0
      7  6.250E+01 0.000E+00 0.000E+00 0.000E+00 0.000E+00    1        8        0        0
      8  6.250E+01 0.000E+00 0.000E+00 0.000E+00 0.000E+00    1        9        0        0
      9  6.250E+01 0.000E+00 0.000E+00 0.000E+00 0.000E+00    1       10        0        0
     10  6.250E+01 0.000E+00 0.000E+00 0.000E+00 0.000E+00    1       11        0        0
     11  6.250E+01 0.000E+00 0.000E+00 0.000E+00 0.000E+00    1       12        0        0
     12  6.250E+01 0.000E+00 0.000E+00 0.000E+00 0.000E+00    1       13        0        0
     13  6.250E+01 0.000E+00 0.000E+00 0.000E+00 0.000E+00    1       14        0        0
     14  6.250E+01 0.000E+00 0.000E+00 0.000E+00 0.000E+00    1       15        0        0
     15  6.250E+01 0.000E+00 0.000E+00 0.000E+00 0.000E+00    1       16        0        0
     16  6.250E+01 0.000E+00 0.000E+00 0.000E+00 0.000E+00    1       17        0        0
     17  6.250E+01 0.000E+00 0.000E+00 0.000E+00 0.000E+00    1       18        0        0
     18  6.250E+01 0.000E+00 0.000E+00 0.000E+00 0.000E+00    1       19        0        0
     19  6.250E+01 0.000E+00 0.000E+00 0.000E+00 0.000E+00    1       20        0        0
     20  6.250E+01 0.000E+00 0.000E+00 0.000E+00 0.000E+00    1       21        0        0
     21  6.250E+01 0.000E+00 0.000E+00 0.000E+00 0.000E+00    1       22        0        0
     22  6.250E+01 0.000E+00 0.000E+00 0.000E+00 0.000E+00    1       23        0        0
     23  6.250E+01 0.000E+00 0.000E+00 0.000E+00 0.000E+00    1       24        0        0
     24  6.250E+01 0.000E+00 0.000E+00 0.000E+00 0.000E+00    1       25        0        0
     25  6.250E+01 0.000E+00 0.000E+00 0.000E+00 0.000E+00    1       26        0        0
     26  6.250E+01 0.000E+00 0.000E+00 0.000E+00 0.000E+00    1       27        0        0
     27  6.250E+01 0.000E+00 0.000E+00 0.000E+00 0.000E+00    1       28        0        0
     28  6.250E+01 0.000E+00 0.000E+00 0.000E+00 0.000E+00    1       29        0        0
     29  6.250E+01 0.000E+00 0.000E+00 0.000E+00 0.000E+00    1       30        0        0
     30  6.250E+01 0.000E+00 0.000E+00 0.000E+00 0.000E+00    1       31        0        0
     31  6.250E+01 0.000E+00 0.000E+00 0.000E+00 0.000E+00    1       32        0        0
     32  6.250E+01 0.000E+00 0.000E+00 0.000E+00 0.000E+00    1       33        0        0
     33  6.250E+01 0.000E+00 0.000E+00 0.000E+00 0.000E+00    1       34        0        0
     34  6.250E+01 0.000E+00 0.000E+00 0.000E+00 0.000E+00    1       35        0        0
     35  6.250E+01 0.000E+00 0.000E+00 0.000E+00 0.000E+00    1       36        0        0
     36  6.250E+01 0.000E+00 0.000E+00 0.000E+00 0.000E+00    1       37        0        0
     37  6.250E+01 0.000E+00 0.000E+00 0.000E+00 0.000E+00    1       38        0        0
     38  6.250E+01 0.000E+00 0.000E+00 0.000E+00 0.000E+00    1       39        0        0
     39  6.250E+01 0.000E+00 0.000E+00 0.000E+00 0.000E+00    1       40        0        0
     40  6.250E+01 0.000E+00 0.000E+00 0.000E+00 0.000E+00    1       41        0        0
     41  6.250E+01 0.000E+00 0.000E+00 0.000E+00 0.000E+00    1       42        0        0
     42  6.250E+01 0.000E+00 0.000E+00 0.000E+00 0.000E+00    1       43        0        0
     43  6.250E+01 0.000E+00 0.000E+00 0.000E+00 0.000E+00    1       44        0        0
     44  6.250E+01 0.000E+00 0.000E+00 0.000E+00 0.000E+00    1       45        0        0
     45  6.250E+01 0.000E+00 0.000E+00 0.000E+00 0.000E+00    1       46        0        0
     46  6.250E+01 0.000E+00 0.000E+00 0.000E+00 0.000E+00    1       47        0        0
     47  6.250E+01 0.000E+00 0.000E+00 0.000E+00 0.000E+00    1       48        0        0
     48  6.250E+01 0.000E+00 0.000E+00 0.000E+00 0.000E+00    1       49        0        0
     49  6.250E+01 0.000E+00 0.000E+00 0.000E+00 0.000E+00    1       50        0        0
     50  6.250E+01 0.000E+00 0.000E+00 0.000E+00 0.000E+00    1       51        0        0
     51  6.250E+01 0.000E+00 0.000E+00 0.000E+00 0.000E+00    1       52        0        0
     52  6.250E+01 0.000E+00 0.000E+00 0.000E+00 0.000E+00    1       53        0        0
     53  6.250E+01 0.000E+00 0.000E+00 0.000E+00 0.000E+00    1       54        0        0
     54  6.250E+01 0.000E+00 0.000E+00 0.000E+00 0.000E+00    1       55        0        0
     55  6.250E+01 0.000E+00 0.000E+00 0.000E+00 0.000E+00    1       56        0        0
     56  6.250E+01 0.000E+00 0.000E+00 0.000E+00 0.000E+00    1       57        0        0
     57  6.250E+01 0.000E+00 0.000E+00 0.000E+00 0.000E+00    1       58        0        0
     58  6.250E+01 0.000E+00 0.000E+00 0.000E+00 0.000E+00    1       59        0        0
     59  6.250E+01 0.000E+00 0.000E+00 0.000E+00 0.000E+00    1       60        0        0
     60  6.250E+01 0.000E+00 0.000E+00 0.000E+00 0.000E+00    1       61        0        0
     61  6.250E+01 0.000E+00 0.000E+00 0.000E+00 0.000E+00    1       62        0        0
     62  6.250E+01 0.000E+00 0.000E+00 0.000E+00 0.000E+00    1       63        0        0
     63  6.250E+01 0.000E+00 0.000E+00 0.000E+00 0.000E+00    1       64        0        0
     64  6.250E+01 0.000E+00 0.000E+00 0.000E+00 0.000E+00    1       65        0        0
     65  6.250E+01 0.000E+00 0.000E+00 0.000E+00 0.000E+00    1       66        0        0
     66  6.250E+01 0.000E+00 0.000E+00 0.000E+00 0.000E+00    1       67        0        0
     67  6.250E+01 0.000E+00 0.000E+00 0.000E+00 0.000E+00    1       68        0        0
     68  6.250E+01 0.000E+00 0.000E+00 0.000E+00 0.000E+00    1       69        0        0
     69  6.250E+01 0.000E+00 0.000E+00 0.000E+00 0.000E+00    1       70        0        0
     70  6.250E+01 0.000E+00 0.000E+00 0.000E+00 0.000E+00    1       71        0        0
     71  6.250E+01 0.000E+00 0.000E+00 0.000E+00 0.000E+00    1       72        0        0
     72  6.250E+01 0.000E+00 0.000E+00 0.000E+00 0.000E+00    1       73        0        0
     73  6.250E+01 0.000E+00 0.000E+00 0.000E+00 0.000E+00    1       74        0        0
     74  6.250E+01 0.000E+00 0.000E+00 0.000E+00 0.000E+00    1       75        0        0
     75  6.250E+01 0.000E+00 0.000E+00 0.000E+00 0.000E+00    1       76        0        0
     76  6.250E+01 0.000E+00 0.000E+00 0.000E+00 0.000E+00    1       77        0        0
     77  6.250E+01 0.000E+00 0.000E+00 0.000E+00 0.000E+00    1       78        0        0
     78  6.250E+01 0.000E+00 0.000E+00 0.000E+00 0.000E+00    1       79        0        0
     79  6.250E+01 0.000E+00 0.000E+00 0.000E+00 0.000E+00    1       80        0        0
     80  6.250E+01 0.000E+00 0.000E+00 0.000E+00 0.000E+00    1       81        0        0
     81  6.250E+01 0.000E+00 0.000E+00 0.000E+00 0.000E+00    1       82        0        0
     82  6.250E+01 0.000E+00 0.000E+00 0.000E+00 0.000E+00    1       83        0        0
     83  6.250E+01 0.000E+00 0.000E+00 0.000E+00 0.000E+00    1       84        0        0
     84  6.250E+01 0.000E+00 0.000E+00 0.000E+00 0.000E+00    1       85        0        0
     85  6.250E+01 0.000E+00 0.000E+00 0.000E+00 0.000E+00    1       86        0        0
     86  6.250E+01 0.000E+00 0.000E+00 0.000E+00 0.000E+00    1       87        0        0
     87  6.250E+01 0.000E+00 0.000E+00 0.000E+00 0.000E+00    1       88        0        0
     88  6.250E+01 0.000E+00 0.000E+00 0.000E+00 0.000E+00    1       89        0        0
     89  6.250E+01 0.000E+00 0.000E+00 0.000E+00 0.000E+00    1       90        0        0
     90  6.250E+01 0.000E+00 0.000E+00 0.000E+00 0.000E+00    1       91        0        0
     91  6.250E+01 0.000E+00 0.000E+00 0.000E+00 0.000E+00    1       92        0        0
     92  6.250E+01 0.000E+00 0.000E+00 0.000E+00 0.000E+00    1       93        0        0
     93  6.250E+01 0.000E+00 0.000E+00 0.000E+00 0.000E+00    1       94        0        0
     94  6.250E+01 0.000E+00 0.000E+00 0.000E+00 0.000E+00    1       95        0        0
     95  6.250E+01 0.000E+00 0.000E+00 0.000E+00 0.000E+00    1       96        0        0
     96  6.250E+01 0.000E+00 0.000E+00 0.000E+00 0.000E+00    1       97        0        0
     97  6.250E+01 0.000E+00 0.000E+00 0.000E+00 0.000E+00    1       98        0        0
     98  6.250E+01 0.000E+00 0.000E+00 0.000E+00 0.000E+00    1       99        0        0
     99  6.250E+01 0.000E+00 0.000E+00 0.000E+00 0.000E+00    1      100        0        0
    100  6.250E+01 0.000E+00 0.000E+00 0.000E+00 0.000E+00    1      101        0        0
    101  6.250E+01 0.000E+00 0.000E+00 0.000E+00 0.000E+00    1      102        0        0
    102  6.250E+01 0.000E+00 0.000E+00 0.000E+00 0.000E+00    1      103        0        0
    103  6.250E+01 0.000E+00 0.000E+00 0.000E+00 0.000E+00    1      104        0        0
    104  6.250E+01 0.000E+00 0.000E+00 0.000E+00 0.000E+00    1      105        0        0
    105  6.250E+01 0.000E+00 0.000E+00 0.000E+00 0.000E+00    1      106        0        0
    106  6.250E+01 0.000E+00 0.000E+00 0.000E+00 0.000E+00    1      107        0        0
    107  6.250E+01 0.000E+00 0.000E+00 0.000E+00 0.000E+00    1      108        0        0
    108  6.250E+01 0.000E+00 0.000E+00 0.000E+00 0.000E+00    1      109        0        0
    109  6.250E+01 0.000E+00 0.000E+00 0.000E+00 0.000E+00    1      110        0        0
    110  6.250E+01 0.000E+00 0.000E+00 0.000E+00 0.000E+00    1      111        0        0
    111  6.250E+01 0.000E+00 0.000E+00 0.000E+00 0.000E+00    1      112        0        0
    112  6.250E+01 0.000E+00 0.000E+00 0.000E+00 0.000E+00    1      113        0        0
    113  6.250E+01 0.000E+00 0.000E+00 0.000E+00 0.000E+00    1      114        0        0
    114  6.250E+01 0.000E+00 0.000E+00 0.000E+00 0.000E+00    1      115        0        0
    115  6.250E+01 0.000E+00 0.000E+00 0.000E+00 0.000E+00    1      116        0        0
    116  6.250E+01 0.000E+00 0.000E+00 0.000E+00 0.000E+00    1      117        0        0
    117  6.250E+01 0.000E+00 0.000E+00 0.000E+00 0.000E+00    1      118        0        0
    118  6.250E+01 0.000E+00 0.000E+00 0.000E+00 0.000E+00    1      119        0        0
    119  6.250E+01 0.000E+00 0.000E+00 0.000E+00 0.000E+00    1      120        0        0
    120  6.250E+01 0.000E+00 0.000E+00 0.000E+00 0.000E+00    1      121        0        0
    121  6.250E+01 0.000E+00 0.000E+00 0.000E+00 0.000E+00    1      122        0        0
    122  6.250E+01 0.000E+00 0.000E+00 0.000E+00 0.000E+00    1      123        0        0
    123  6.250E+01 0.000E+00 0.000E+00 0.000E+00 0.000E+00    1      124        0        0
    124  6.250E+01 0.000E+00 0.000E+00 0.000E+00 0.000E+00    1      125        0        0
    125  6.250E+01 0.000E+00 0.000E+00 0.000E+00 0.000E+00    1      126        0        0
    126  6.250E+01 0.000E+00 0.000E+00 0.000E+00 0.000E+00    1      127        0        0
    127  6.250E+01 0.000E+00 0.000E+00 0.000E+00 0.000E+00    1      128        0        0
    128  6.250E+01 0.000E+00 0.000E+00 0.000E+00 0.000E+00    1      129        0        0
    129  6.250E+01 0.000E+00 0.000E+00 0.000E+00 0.000E+00    1      130        0        0
    130  6.250E+01 0.000E+00 0.000E+00 0.000E+00 0.000E+00    1      131        0        0
    131  6.250E+01 0.000E+00 0.000E+00 0.000E+00 0.000E+00    1      132        0        0
    132  6.250E+01 0.000E+00 0.000E+00 0.000E+00 0.000E+00    1      133        0        0
    133  6.250E+01 0.000E+00 0.000E+00 0.000E+00 0.000E+00    1      134        0        0
    134  6.250E+01 0.000E+00 0.000E+00 0.000E+00 0.000E+00    1      135        0        0
    135  6.250E+01 0.000E+00 0.000E+00 0.000E+00 0.000E+00    1      136        0        0
    136  6.250E+01 0.000E+00 0.000E+00 0.000E+00 0.000E+00    1      137        0        0
    137  6.250E+01 0.000E+00 0.000E+00 0.000E+00 0.000E+00    1      138        0        0
    138  6.250E+01 0.000E+00 0.000E+00 0.000E+00 0.000E+00    1      139        0        0
    139  6.250E+01 0.000E+00 0.000E+00 0.000E+00 0.000E+00    1      140        0        0
    140  6.250E+01 0.000E+00 0.000E+00 0.000E+00 0.000E+00    1      141        0        0
    141  6.250E+01 0.000E+00 0.000E+00 0.000E+00 0.000E+00    1      142        0        0
    142  6.250E+01 0.000E+00 0.000E+00 0.000E+00 0.000E+00    1      143        0        0
    143  6.250E+01 0.000E+00 0.000E+00 0.000E+00 0.000E+00    1      144        0        0
    144  6.250E+01 0.000E+00 0.000E+00 0.000E+00 0.000E+00    1      145        0        0
    145  6.250E+01 0.000E+00 0.000E+00 0.000E+00 0.000E+00    1      146        0        0
    146  6.250E+01 0.000E+00 0.000E+00 0.000E+00 0.000E+00    1      147        0        0
    147  6.250E+01 0.000E+00 0.000E+00 0.000E+00 0.000E+00    1      148        0        0
    148  6.250E+01 0.000E+00 0.000E+00 0.000E+00 0.000E+00    1      149        0        0
    149  6.250E+01 0.000E+00 0.000E+00 0.000E+00 0.000E+00    1      150        0        0
    150  6.250E+01 0.000E+00 0.000E+00 0.000E+00 0.000E+00    1      151        0        0
    151  6.250E+01 0.000E+00 0.000E+00 0.000E+00 0.000E+00    1      152        0        0
    152  6.250E+01 0.000E+00 0.000E+00 0.000E+00 0.000E+00    1      153        0        0
    153  6.250E+01 0.000E+00 0.000E+00 0.000E+00 0.000E+00    1      154        0        0
    154  6.250E+01 0.000E+00 0.000E+00 0.000E+00 0.000E+00    1      155        0        0
    155  6.250E+01 0.000E+00 0.000E+00 0.000E+00 0.000E+00    1      156        0        0
    156  6.250E+01 0.000E+00 0.000E+00 0.000E+00 0.000E+00    1      157        0        0
    157  6.250E+01 0.000E+00 0.000E+00 0.000E+00 0.000E+00    1      158        0        0
    158  6.250E+01 0.000E+00 0.000E+00 0.000E+00 0.000E+00    1      159        0        0
    159  6.250E+01 0.000E+00 0.000E+00 0.000E+00 0.000E+00    1      160        0        0
    160  6.250E+01 0.000E+00 0.000E+00 0.000E+00 0.000E+00    1      161        0        0


         STREAMBED PROPERTIES AND STREAM DIMENSIONS

 SEGMENT     WIDTH OF STREAM     DEPTH OF STREAM    STREAM ROUGHNESS
    No.     UPPER     LOWER     UPPER     LOWER     CHANNEL      BANK

     1    5.000E+00 5.000E+00                      1.000E-01
     2    5.000E+00 5.000E+00                      1.000E-01
     3    5.000E+00 5.000E+00                      1.000E-01
     4    5.000E+00 5.000E+00                      1.000E-01
     5    5.000E+00 5.000E+00                      1.000E-01
     6    5.000E+00 5.000E+00                      1.000E-01
     7    5.000E+00 5.000E+00                      1.000E-01
     8    5.000E+00 5.000E+00                      1.000E-01
     9    5.000E+00 5.000E+00                      1.000E-01
    10    5.000E+00 5.000E+00                      1.000E-01
    11    5.000E+00 5.000E+00                      1.000E-01
    12    5.000E+00 5.000E+00                      1.000E-01
    13    5.000E+00 5.000E+00                      1.000E-01
    14    5.000E+00 5.000E+00                      1.000E-01
    15    5.000E+00 5.000E+00                      1.000E-01
    16    5.000E+00 5.000E+00                      1.000E-01
    17    5.000E+00 5.000E+00                      1.000E-01
    18    5.000E+00 5.000E+00                      1.000E-01
    19    5.000E+00 5.000E+00                      1.000E-01
    20    5.000E+00 5.000E+00                      1.000E-01
    21    5.000E+00 5.000E+00                      1.000E-01
    22    5.000E+00 5.000E+00                      1.000E-01
    23    5.000E+00 5.000E+00                      1.000E-01
    24    5.000E+00 5.000E+00                      1.000E-01
    25    5.000E+00 5.000E+00                      1.000E-01
    26    5.000E+00 5.000E+00                      1.000E-01
    27    5.000E+00 5.000E+00                      1.000E-01
    28    5.000E+00 5.000E+00                      1.000E-01
    29    5.000E+00 5.000E+00                      1.000E-01
    30    5.000E+00 5.000E+00                      1.000E-01
    31    5.000E+00 5.000E+00                      1.000E-01
    32    5.000E+00 5.000E+00                      1.000E-01
    33    5.000E+00 5.000E+00                      1.000E-01
    34    5.000E+00 5.000E+00                      1.000E-01
    35    5.000E+00 5.000E+00                      1.000E-01
    36    5.000E+00 5.000E+00                      1.000E-01
    37    5.000E+00 5.000E+00                      1.000E-01
    38    5.000E+00 5.000E+00                      1.000E-01
    39    5.000E+00 5.000E+00                      1.000E-01
    40    5.000E+00 5.000E+00                      1.000E-01
    41    5.000E+00 5.000E+00                      1.000E-01
    42    5.000E+00 5.000E+00                      1.000E-01
    43    5.000E+00 5.000E+00                      1.000E-01
    44    5.000E+00 5.000E+00                      1.000E-01
    45    5.000E+00 5.000E+00                      1.000E-01
    46    5.000E+00 5.000E+00                      1.000E-01
    47    5.000E+00 5.000E+00                      1.000E-01
    48    5.000E+00 5.000E+00                      1.000E-01
    49    5.000E+00 5.000E+00                      1.000E-01
    50    5.000E+00 5.000E+00                      1.000E-01
    51    5.000E+00 5.000E+00                      1.000E-01
    52    5.000E+00 5.000E+00                      1.000E-01
    53    5.000E+00 5.000E+00                      1.000E-01
    54    5.000E+00 5.000E+00                      1.000E-01
    55    5.000E+00 5.000E+00                      1.000E-01
    56    5.000E+00 5.000E+00                      1.000E-01
    57    5.000E+00 5.000E+00                      1.000E-01
    58    5.000E+00 5.000E+00                      1.000E-01
    59    5.000E+00 5.000E+00                      1.000E-01
    60    5.000E+00 5.000E+00                      1.000E-01
    61    5.000E+00 5.000E+00                      1.000E-01
    62    5.000E+00 5.000E+00                      1.000E-01
    63    5.000E+00 5.000E+00                      1.000E-01
    64    5.000E+00 5.000E+00                      1.000E-01
    65    5.000E+00 5.000E+00                      1.000E-01
    66    5.000E+00 5.000E+00                      1.000E-01
    67    5.000E+00 5.000E+00                      1.000E-01
    68    5.000E+00 5.000E+00                      1.000E-01
    69    5.000E+00 5.000E+00                      1.000E-01
    70    5.000E+00 5.000E+00                      1.000E-01
    71    5.000E+00 5.000E+00                      1.000E-01
    72    5.000E+00 5.000E+00                      1.000E-01
    73    5.000E+00 5.000E+00                      1.000E-01
    74    5.000E+00 5.000E+00                      1.000E-01
    75    5.000E+00 5.000E+00                      1.000E-01
    76    5.000E+00 5.000E+00                      1.000E-01
    77    5.000E+00 5.000E+00                      1.000E-01
    78    5.000E+00 5.000E+00                      1.000E-01
    79    5.000E+00 5.000E+00                      1.000E-01
    80    5.000E+00 5.000E+00                      1.000E-01
    81    5.000E+00 5.000E+00                      1.000E-01
    82    5.000E+00 5.000E+00                      1.000E-01
    83    5.000E+00 5.000E+00                      1.000E-01
    84    5.000E+00 5.000E+00                      1.000E-01
    85    5.000E+00 5.000E+00                      1.000E-01
    86    5.000E+00 5.000E+00                      1.000E-01
    87    5.000E+00 5.000E+00                      1.000E-01
    88    5.000E+00 5.000E+00                      1.000E-01
    89    5.000E+00 5.000E+00                      1.000E-01
    90    5.000E+00 5.000E+00                      1.000E-01
    91    5.000E+00 5.000E+00                      1.000E-01
    92    5.000E+00 5.000E+00                      1.000E-01
    93    5.000E+00 5.000E+00                      1.000E-01
    94    5.000E+00 5.000E+00                      1.000E-01
    95    5.000E+00 5.000E+00                      1.000E-01
    96    5.000E+00 5.000E+00                      1.000E-01
    97    5.000E+00 5.000E+00                      1.000E-01
    98    5.000E+00 5.000E+00                      1.000E-01
    99    5.000E+00 5.000E+00                      1.000E-01
   100    5.000E+00 5.000E+00                      1.000E-01
   101    5.000E+00 5.000E+00                      1.000E-01
   102    5.000E+00 5.000E+00                      1.000E-01
   103    5.000E+00 5.000E+00                      1.000E-01
   104    5.000E+00 5.000E+00                      1.000E-01
   105    5.000E+00 5.000E+00                      1.000E-01
   106    5.000E+00 5.000E+00                      1.000E-01
   107    5.000E+00 5.000E+00                      1.000E-01
   108    5.000E+00 5.000E+00                      1.000E-01
   109    5.000E+00 5.000E+00                      1.000E-01
   110    5.000E+00 5.000E+00                      1.000E-01
   111    5.000E+00 5.000E+00                      1.000E-01
   112    5.000E+00 5.000E+00                      1.000E-01
   113    5.000E+00 5.000E+00                      1.000E-01
   114    5.000E+00 5.000E+00                      1.000E-01
   115    5.000E+00 5.000E+00                      1.000E-01
   116    5.000E+00 5.000E+00                      1.000E-01
   117    5.000E+00 5.000E+00                      1.000E-01
   118    5.000E+00 5.000E+00                      1.000E-01
   119    5.000E+00 5.000E+00                      1.000E-01
   120    5.000E+00 5.000E+00                      1.000E-01
   121    5.000E+00 5.000E+00                      1.000E-01
   122    5.000E+00 5.000E+00                      1.000E-01
   123    5.000E+00 5.000E+00                      1.000E-01
   124    5.000E+00 5.000E+00                      1.000E-01
   125    5.000E+00 5.000E+00                      1.000E-01
   126    5.000E+00 5.000E+00                      1.000E-01
   127    5.000E+00 5.000E+00                      1.000E-01
   128    5.000E+00 5.000E+00                      1.000E-01
   129    5.000E+00 5.000E+00                      1.000E-01
   130    5.000E+00 5.000E+00                      1.000E-01
   131    5.000E+00 5.000E+00                      1.000E-01
   132    5.000E+00 5.000E+00                      1.000E-01
   133    5.000E+00 5.000E+00                      1.000E-01
   134    5.000E+00 5.000E+00                      1.000E-01
   135    5.000E+00 5.000E+00                      1.000E-01
   136    5.000E+00 5.000E+00                      1.000E-01
   137    5.000E+00 5.000E+00                      1.000E-01
   138    5.000E+00 5.000E+00                      1.000E-01
   139    5.000E+00 5.000E+00                      1.000E-01
   140    5.000E+00 5.000E+00                      1.000E-01
   141    5.000E+00 5.000E+00                      1.000E-01
   142    5.000E+00 5.000E+00                      1.000E-01
   143    5.000E+00 5.000E+00                      1.000E-01
   144    5.000E+00 5.000E+00                      1.000E-01
   145    5.000E+00 5.000E+00                      1.000E-01
   146    5.000E+00 5.000E+00                      1.000E-01
   147    5.000E+00 5.000E+00                      1.000E-01
   148    5.000E+00 5.000E+00                      1.000E-01
   149    5.000E+00 5.000E+00                      1.000E-01
   150    5.000E+00 5.000E+00                      1.000E-01
   151    5.000E+00 5.000E+00                      1.000E-01
   152    5.000E+00 5.000E+00                      1.000E-01
   153    5.000E+00 5.000E+00                      1.000E-01
   154    5.000E+00 5.000E+00                      1.000E-01
   155    5.000E+00 5.000E+00                      1.000E-01
   156    5.000E+00 5.000E+00                      1.000E-01
   157    5.000E+00 5.000E+00                      1.000E-01
   158    5.000E+00 5.000E+00                      1.000E-01
   159    5.000E+00 5.000E+00                      1.000E-01
   160    5.000E+00 5.000E+00                      1.000E-01



 
 SOLVING FOR HEAD 


 OUTER ITERATION SUMMARY
 -----------------------
 BT: Backtracking; LA: Linear Acceleration; UR: Under-relaxation

    Outer-Iteration  Inner-Iteration    Maximum Head Change  Maximum Head Change
        Number           Count               Value              Location
LA         1                7              -0.18811                   907           GWF-node number
LA         2                5              -0.13607E-01              1094           GWF-node number
LA         3                2              -0.62352E-03              1094           GWF-node number
LA         4                1              -0.23027E-04              1427           GWF-node number


     4 CALLS TO SPARSE MATRIX SOLVER PACKAGE  IN FLOW TIME STEP   1 STRESS PERIOD  21

 TOTAL OF       4OUTER ITERATIONS
  MAXIMUM CHANGE FOR EACH ITERATION:
   MAX. CHANGE        NODE  MAX. CHANGE        NODE  MAX. CHANGE        NODE  MAX. CHANGE        NODE  MAX. CHANGE        NODE
 ------------------------------------------------------------------------------------------------------------------------------------
  -0.18811    ,        907 -0.13607E-01,       1094 -0.62352E-03,       1094 -0.23027E-04,       1427

 OUTPUT CONTROL FOR STRESS PERIOD       21   TIME STEP        1
    SAVE HEAD FOR ALL LAYERS
    SAVE BUDGET
 UBDSV1U SAVING "         STORAGE" ON UNIT  50 AT TIME STEP      1, STRESS PERIOD     21
 UBDSV2U SAVING "   CONSTANT HEAD" ON UNIT  50 AT TIME STEP      1, STRESS PERIOD     21
 UBDSV1U SAVING "   FLOW JA FACE " ON UNIT  50 AT TIME STEP      1, STRESS PERIOD     21
 UBDSV4U SAVING "           WELLS" ON UNIT  50 AT TIME STEP      1, STRESS PERIOD     21
 UBDSV4U SAVING " HEAD DEP BOUNDS" ON UNIT  50 AT TIME STEP      1, STRESS PERIOD     21
 UBDSV3U SAVING "        RECHARGE" ON UNIT  50 AT TIME STEP      1, STRESS PERIOD     21
 UBDSV2U SAVING "  STREAM LEAKAGE" ON UNIT  50 AT TIME STEP      1, STRESS PERIOD     21




 HEAD WILL BE SAVED ON UNIT   51 AT END OF TIME STEP   1, STRESS PERIOD   21
1
  VOLUMETRIC BUDGET FOR ENTIRE MODEL AT END OF TIME STEP       1 IN STRESS PERIOD      21
  ---------------------------------------------------------------------------------------

     CUMULATIVE VOLUMES      L**3       RATES FOR THIS TIME STEP      L**3/T
     ------------------                 ------------------------

           IN:                                      IN:
           ---                                      ---
             STORAGE =      634982.8841               STORAGE =        2031.3746
       CONSTANT HEAD =           0.0000         CONSTANT HEAD =           0.0000
               WELLS =           0.0000                 WELLS =           0.0000
     HEAD DEP BOUNDS =      214270.0273       HEAD DEP BOUNDS =         605.5125
            RECHARGE =     1586021.8139              RECHARGE =        1029.4573
      STREAM LEAKAGE =       93900.1944        STREAM LEAKAGE =         341.3994

            TOTAL IN =     2529174.9196              TOTAL IN =        4007.7438

          OUT:                                     OUT:
          ----                                     ----
             STORAGE =      492046.2221               STORAGE =           0.0000
       CONSTANT HEAD =           0.0000         CONSTANT HEAD =           0.0000
               WELLS =     1421515.6322                 WELLS =        3667.4858
     HEAD DEP BOUNDS =      316003.1583       HEAD DEP BOUNDS =         158.1538
            RECHARGE =           0.0000              RECHARGE =           0.0000
      STREAM LEAKAGE =      299620.0131        STREAM LEAKAGE =         182.1162

           TOTAL OUT =     2529185.0256             TOTAL OUT =        4007.7559

            IN - OUT =         -10.1059              IN - OUT =      -1.2165E-02

 PERCENT DISCREPANCY =          -0.00     PERCENT DISCREPANCY =          -0.00






          TIME SUMMARY AT END OF TIME STEP         1 IN STRESS PERIOD        21
                    SECONDS     MINUTES      HOURS       DAYS        YEARS
                    -----------------------------------------------------------
   TIME STEP LENGTH 2.67840E+06  44640.      744.00      31.000     8.48734E-02
 STRESS PERIOD TIME 2.67840E+06  44640.      744.00      31.000     8.48734E-02
         TOTAL TIME 5.27040E+07 8.78400E+05  14640.      610.00      1.6701    
1
1
                            STRESS PERIOD NO.   22, LENGTH =   30.00000    
                            -----------------------------------------------

                              NUMBER OF TIME STEPS =     1

                               MULTIPLIER FOR DELT =     1.000

                            INITIAL TIME STEP SIZE =   30.00000    

 WEL -- WELL PACKAGE, VERSION 7, 5/2/2005 INPUT READ FROM UNIT   20

 WELL NO.      NODE       STRESS FACTOR         
 -----------------------------------------------
      1        3324      -545.7    
      2        3409      -545.7    
      3        3737      -545.7    
      4        3971      -545.7    
      5        4092      -545.7    
      6        4297      -545.7    

      6 WELLS

 GHB -- GENERAL-HEAD BOUNDARY PACKAGE, VERSION 7, 5/2/2005
         INPUT READ FROM UNIT   30

 BOUND NO.     NODE         STAGE         CONDUCTANCE         
 -------------------------------------------------------------
      1        1473       33.50           70.00    
      2        1474       33.50           70.00    
      3        1475       33.50           70.00    
      4        1476       33.50           70.00    
      5        1477       33.50           70.00    
      6        1478       33.50           70.00    
      7        1479       33.50           70.00    
      8        1480       33.50           70.00    
      9        1481       33.50           70.00    
     10        1482       33.50           70.00    
     11        2972       33.50           70.00    
     12        2973       33.50           70.00    
     13        2974       33.50           70.00    
     14        2975       33.50           70.00    
     15        2976       33.50           70.00    
     16        2977       33.50           70.00    
     17        2978       33.50           70.00    
     18        2979       33.50           70.00    
     19        2980       33.50           70.00    
     20        2981       33.50           70.00    
     21        4471       33.50           70.00    
     22        4472       33.50           70.00    
     23        4473       33.50           70.00    
     24        4474       33.50           70.00    
     25        4475       33.50           70.00    
     26        4476       33.50           70.00    
     27        4477       33.50           70.00    
     28        4478       33.50           70.00    
     29        4479       33.50           70.00    
     30        4480       33.50           70.00    
     31        2999       35.50           70.00    
     32        3000       35.50           70.00    
     33        3001       35.50           70.00    
     34        3002       35.50           70.00    
     35        3003       35.50           70.00    
     36        3004       35.50           70.00    
     37        3005       35.50           70.00    
     38        3006       35.50           70.00    
     39        3007       35.50           70.00    
     40        3008       35.50           70.00    
     41        3009       35.50           70.00    
     42        3010       35.50           70.00    
     43        3011       35.50           70.00    
     44        3012       35.50           70.00    
     45        3013       35.50           70.00    
     46        3023       35.50           4.375    
     47        3027       35.50           17.50    
     48        3028       35.50           70.00    
     49        3029       35.50           70.00    
     50        3030       35.50           70.00    

     50 GHB CELLS

 RCH -- RECHARGE PACKAGE, VERSION 7, 5/2/2005 INPUT READ FROM UNIT   31



                           RECHARGE
 READING ON UNIT   31 WITH FORMAT: (1499E15.6)         



 CLASSIFICATION & COUNT OF STREAM SEGMENTS BASED ON SOURCE OF INFLOW:

                HEADWATER     DIVERSION     RECEIVES TRIBUTARY FLOW
                ---------     ---------     -----------------------
                     1              0             159



                    INPUT DATA FOR EACH STREAM SEGMENT
 ---------------------------------------------------------------------------------------------

 SEGMENT    SEG.     INFLOW   OVERLAND   STREAM    STREAM   ICALC  OUTFLOW  DIVERSION PRIORITY
    NO.    LENGTH     RATE     RUNOFF      ET       PPT.    METH.  TO SEG.  FROM SEG.    NO.

      1  6.250E+01 6.123E+03 0.000E+00 0.000E+00 0.000E+00    1        2        0        0
      2  6.250E+01 0.000E+00 0.000E+00 0.000E+00 0.000E+00    1        3        0        0
      3  6.250E+01 0.000E+00 0.000E+00 0.000E+00 0.000E+00    1        4        0        0
      4  6.250E+01 0.000E+00 0.000E+00 0.000E+00 0.000E+00    1        5        0        0
      5  6.250E+01 0.000E+00 0.000E+00 0.000E+00 0.000E+00    1        6        0        0
      6  6.250E+01 0.000E+00 0.000E+00 0.000E+00 0.000E+00    1        7        0        0
      7  6.250E+01 0.000E+00 0.000E+00 0.000E+00 0.000E+00    1        8        0        0
      8  6.250E+01 0.000E+00 0.000E+00 0.000E+00 0.000E+00    1        9        0        0
      9  6.250E+01 0.000E+00 0.000E+00 0.000E+00 0.000E+00    1       10        0        0
     10  6.250E+01 0.000E+00 0.000E+00 0.000E+00 0.000E+00    1       11        0        0
     11  6.250E+01 0.000E+00 0.000E+00 0.000E+00 0.000E+00    1       12        0        0
     12  6.250E+01 0.000E+00 0.000E+00 0.000E+00 0.000E+00    1       13        0        0
     13  6.250E+01 0.000E+00 0.000E+00 0.000E+00 0.000E+00    1       14        0        0
     14  6.250E+01 0.000E+00 0.000E+00 0.000E+00 0.000E+00    1       15        0        0
     15  6.250E+01 0.000E+00 0.000E+00 0.000E+00 0.000E+00    1       16        0        0
     16  6.250E+01 0.000E+00 0.000E+00 0.000E+00 0.000E+00    1       17        0        0
     17  6.250E+01 0.000E+00 0.000E+00 0.000E+00 0.000E+00    1       18        0        0
     18  6.250E+01 0.000E+00 0.000E+00 0.000E+00 0.000E+00    1       19        0        0
     19  6.250E+01 0.000E+00 0.000E+00 0.000E+00 0.000E+00    1       20        0        0
     20  6.250E+01 0.000E+00 0.000E+00 0.000E+00 0.000E+00    1       21        0        0
     21  6.250E+01 0.000E+00 0.000E+00 0.000E+00 0.000E+00    1       22        0        0
     22  6.250E+01 0.000E+00 0.000E+00 0.000E+00 0.000E+00    1       23        0        0
     23  6.250E+01 0.000E+00 0.000E+00 0.000E+00 0.000E+00    1       24        0        0
     24  6.250E+01 0.000E+00 0.000E+00 0.000E+00 0.000E+00    1       25        0        0
     25  6.250E+01 0.000E+00 0.000E+00 0.000E+00 0.000E+00    1       26        0        0
     26  6.250E+01 0.000E+00 0.000E+00 0.000E+00 0.000E+00    1       27        0        0
     27  6.250E+01 0.000E+00 0.000E+00 0.000E+00 0.000E+00    1       28        0        0
     28  6.250E+01 0.000E+00 0.000E+00 0.000E+00 0.000E+00    1       29        0        0
     29  6.250E+01 0.000E+00 0.000E+00 0.000E+00 0.000E+00    1       30        0        0
     30  6.250E+01 0.000E+00 0.000E+00 0.000E+00 0.000E+00    1       31        0        0
     31  6.250E+01 0.000E+00 0.000E+00 0.000E+00 0.000E+00    1       32        0        0
     32  6.250E+01 0.000E+00 0.000E+00 0.000E+00 0.000E+00    1       33        0        0
     33  6.250E+01 0.000E+00 0.000E+00 0.000E+00 0.000E+00    1       34        0        0
     34  6.250E+01 0.000E+00 0.000E+00 0.000E+00 0.000E+00    1       35        0        0
     35  6.250E+01 0.000E+00 0.000E+00 0.000E+00 0.000E+00    1       36        0        0
     36  6.250E+01 0.000E+00 0.000E+00 0.000E+00 0.000E+00    1       37        0        0
     37  6.250E+01 0.000E+00 0.000E+00 0.000E+00 0.000E+00    1       38        0        0
     38  6.250E+01 0.000E+00 0.000E+00 0.000E+00 0.000E+00    1       39        0        0
     39  6.250E+01 0.000E+00 0.000E+00 0.000E+00 0.000E+00    1       40        0        0
     40  6.250E+01 0.000E+00 0.000E+00 0.000E+00 0.000E+00    1       41        0        0
     41  6.250E+01 0.000E+00 0.000E+00 0.000E+00 0.000E+00    1       42        0        0
     42  6.250E+01 0.000E+00 0.000E+00 0.000E+00 0.000E+00    1       43        0        0
     43  6.250E+01 0.000E+00 0.000E+00 0.000E+00 0.000E+00    1       44        0        0
     44  6.250E+01 0.000E+00 0.000E+00 0.000E+00 0.000E+00    1       45        0        0
     45  6.250E+01 0.000E+00 0.000E+00 0.000E+00 0.000E+00    1       46        0        0
     46  6.250E+01 0.000E+00 0.000E+00 0.000E+00 0.000E+00    1       47        0        0
     47  6.250E+01 0.000E+00 0.000E+00 0.000E+00 0.000E+00    1       48        0        0
     48  6.250E+01 0.000E+00 0.000E+00 0.000E+00 0.000E+00    1       49        0        0
     49  6.250E+01 0.000E+00 0.000E+00 0.000E+00 0.000E+00    1       50        0        0
     50  6.250E+01 0.000E+00 0.000E+00 0.000E+00 0.000E+00    1       51        0        0
     51  6.250E+01 0.000E+00 0.000E+00 0.000E+00 0.000E+00    1       52        0        0
     52  6.250E+01 0.000E+00 0.000E+00 0.000E+00 0.000E+00    1       53        0        0
     53  6.250E+01 0.000E+00 0.000E+00 0.000E+00 0.000E+00    1       54        0        0
     54  6.250E+01 0.000E+00 0.000E+00 0.000E+00 0.000E+00    1       55        0        0
     55  6.250E+01 0.000E+00 0.000E+00 0.000E+00 0.000E+00    1       56        0        0
     56  6.250E+01 0.000E+00 0.000E+00 0.000E+00 0.000E+00    1       57        0        0
     57  6.250E+01 0.000E+00 0.000E+00 0.000E+00 0.000E+00    1       58        0        0
     58  6.250E+01 0.000E+00 0.000E+00 0.000E+00 0.000E+00    1       59        0        0
     59  6.250E+01 0.000E+00 0.000E+00 0.000E+00 0.000E+00    1       60        0        0
     60  6.250E+01 0.000E+00 0.000E+00 0.000E+00 0.000E+00    1       61        0        0
     61  6.250E+01 0.000E+00 0.000E+00 0.000E+00 0.000E+00    1       62        0        0
     62  6.250E+01 0.000E+00 0.000E+00 0.000E+00 0.000E+00    1       63        0        0
     63  6.250E+01 0.000E+00 0.000E+00 0.000E+00 0.000E+00    1       64        0        0
     64  6.250E+01 0.000E+00 0.000E+00 0.000E+00 0.000E+00    1       65        0        0
     65  6.250E+01 0.000E+00 0.000E+00 0.000E+00 0.000E+00    1       66        0        0
     66  6.250E+01 0.000E+00 0.000E+00 0.000E+00 0.000E+00    1       67        0        0
     67  6.250E+01 0.000E+00 0.000E+00 0.000E+00 0.000E+00    1       68        0        0
     68  6.250E+01 0.000E+00 0.000E+00 0.000E+00 0.000E+00    1       69        0        0
     69  6.250E+01 0.000E+00 0.000E+00 0.000E+00 0.000E+00    1       70        0        0
     70  6.250E+01 0.000E+00 0.000E+00 0.000E+00 0.000E+00    1       71        0        0
     71  6.250E+01 0.000E+00 0.000E+00 0.000E+00 0.000E+00    1       72        0        0
     72  6.250E+01 0.000E+00 0.000E+00 0.000E+00 0.000E+00    1       73        0        0
     73  6.250E+01 0.000E+00 0.000E+00 0.000E+00 0.000E+00    1       74        0        0
     74  6.250E+01 0.000E+00 0.000E+00 0.000E+00 0.000E+00    1       75        0        0
     75  6.250E+01 0.000E+00 0.000E+00 0.000E+00 0.000E+00    1       76        0        0
     76  6.250E+01 0.000E+00 0.000E+00 0.000E+00 0.000E+00    1       77        0        0
     77  6.250E+01 0.000E+00 0.000E+00 0.000E+00 0.000E+00    1       78        0        0
     78  6.250E+01 0.000E+00 0.000E+00 0.000E+00 0.000E+00    1       79        0        0
     79  6.250E+01 0.000E+00 0.000E+00 0.000E+00 0.000E+00    1       80        0        0
     80  6.250E+01 0.000E+00 0.000E+00 0.000E+00 0.000E+00    1       81        0        0
     81  6.250E+01 0.000E+00 0.000E+00 0.000E+00 0.000E+00    1       82        0        0
     82  6.250E+01 0.000E+00 0.000E+00 0.000E+00 0.000E+00    1       83        0        0
     83  6.250E+01 0.000E+00 0.000E+00 0.000E+00 0.000E+00    1       84        0        0
     84  6.250E+01 0.000E+00 0.000E+00 0.000E+00 0.000E+00    1       85        0        0
     85  6.250E+01 0.000E+00 0.000E+00 0.000E+00 0.000E+00    1       86        0        0
     86  6.250E+01 0.000E+00 0.000E+00 0.000E+00 0.000E+00    1       87        0        0
     87  6.250E+01 0.000E+00 0.000E+00 0.000E+00 0.000E+00    1       88        0        0
     88  6.250E+01 0.000E+00 0.000E+00 0.000E+00 0.000E+00    1       89        0        0
     89  6.250E+01 0.000E+00 0.000E+00 0.000E+00 0.000E+00    1       90        0        0
     90  6.250E+01 0.000E+00 0.000E+00 0.000E+00 0.000E+00    1       91        0        0
     91  6.250E+01 0.000E+00 0.000E+00 0.000E+00 0.000E+00    1       92        0        0
     92  6.250E+01 0.000E+00 0.000E+00 0.000E+00 0.000E+00    1       93        0        0
     93  6.250E+01 0.000E+00 0.000E+00 0.000E+00 0.000E+00    1       94        0        0
     94  6.250E+01 0.000E+00 0.000E+00 0.000E+00 0.000E+00    1       95        0        0
     95  6.250E+01 0.000E+00 0.000E+00 0.000E+00 0.000E+00    1       96        0        0
     96  6.250E+01 0.000E+00 0.000E+00 0.000E+00 0.000E+00    1       97        0        0
     97  6.250E+01 0.000E+00 0.000E+00 0.000E+00 0.000E+00    1       98        0        0
     98  6.250E+01 0.000E+00 0.000E+00 0.000E+00 0.000E+00    1       99        0        0
     99  6.250E+01 0.000E+00 0.000E+00 0.000E+00 0.000E+00    1      100        0        0
    100  6.250E+01 0.000E+00 0.000E+00 0.000E+00 0.000E+00    1      101        0        0
    101  6.250E+01 0.000E+00 0.000E+00 0.000E+00 0.000E+00    1      102        0        0
    102  6.250E+01 0.000E+00 0.000E+00 0.000E+00 0.000E+00    1      103        0        0
    103  6.250E+01 0.000E+00 0.000E+00 0.000E+00 0.000E+00    1      104        0        0
    104  6.250E+01 0.000E+00 0.000E+00 0.000E+00 0.000E+00    1      105        0        0
    105  6.250E+01 0.000E+00 0.000E+00 0.000E+00 0.000E+00    1      106        0        0
    106  6.250E+01 0.000E+00 0.000E+00 0.000E+00 0.000E+00    1      107        0        0
    107  6.250E+01 0.000E+00 0.000E+00 0.000E+00 0.000E+00    1      108        0        0
    108  6.250E+01 0.000E+00 0.000E+00 0.000E+00 0.000E+00    1      109        0        0
    109  6.250E+01 0.000E+00 0.000E+00 0.000E+00 0.000E+00    1      110        0        0
    110  6.250E+01 0.000E+00 0.000E+00 0.000E+00 0.000E+00    1      111        0        0
    111  6.250E+01 0.000E+00 0.000E+00 0.000E+00 0.000E+00    1      112        0        0
    112  6.250E+01 0.000E+00 0.000E+00 0.000E+00 0.000E+00    1      113        0        0
    113  6.250E+01 0.000E+00 0.000E+00 0.000E+00 0.000E+00    1      114        0        0
    114  6.250E+01 0.000E+00 0.000E+00 0.000E+00 0.000E+00    1      115        0        0
    115  6.250E+01 0.000E+00 0.000E+00 0.000E+00 0.000E+00    1      116        0        0
    116  6.250E+01 0.000E+00 0.000E+00 0.000E+00 0.000E+00    1      117        0        0
    117  6.250E+01 0.000E+00 0.000E+00 0.000E+00 0.000E+00    1      118        0        0
    118  6.250E+01 0.000E+00 0.000E+00 0.000E+00 0.000E+00    1      119        0        0
    119  6.250E+01 0.000E+00 0.000E+00 0.000E+00 0.000E+00    1      120        0        0
    120  6.250E+01 0.000E+00 0.000E+00 0.000E+00 0.000E+00    1      121        0        0
    121  6.250E+01 0.000E+00 0.000E+00 0.000E+00 0.000E+00    1      122        0        0
    122  6.250E+01 0.000E+00 0.000E+00 0.000E+00 0.000E+00    1      123        0        0
    123  6.250E+01 0.000E+00 0.000E+00 0.000E+00 0.000E+00    1      124        0        0
    124  6.250E+01 0.000E+00 0.000E+00 0.000E+00 0.000E+00    1      125        0        0
    125  6.250E+01 0.000E+00 0.000E+00 0.000E+00 0.000E+00    1      126        0        0
    126  6.250E+01 0.000E+00 0.000E+00 0.000E+00 0.000E+00    1      127        0        0
    127  6.250E+01 0.000E+00 0.000E+00 0.000E+00 0.000E+00    1      128        0        0
    128  6.250E+01 0.000E+00 0.000E+00 0.000E+00 0.000E+00    1      129        0        0
    129  6.250E+01 0.000E+00 0.000E+00 0.000E+00 0.000E+00    1      130        0        0
    130  6.250E+01 0.000E+00 0.000E+00 0.000E+00 0.000E+00    1      131        0        0
    131  6.250E+01 0.000E+00 0.000E+00 0.000E+00 0.000E+00    1      132        0        0
    132  6.250E+01 0.000E+00 0.000E+00 0.000E+00 0.000E+00    1      133        0        0
    133  6.250E+01 0.000E+00 0.000E+00 0.000E+00 0.000E+00    1      134        0        0
    134  6.250E+01 0.000E+00 0.000E+00 0.000E+00 0.000E+00    1      135        0        0
    135  6.250E+01 0.000E+00 0.000E+00 0.000E+00 0.000E+00    1      136        0        0
    136  6.250E+01 0.000E+00 0.000E+00 0.000E+00 0.000E+00    1      137        0        0
    137  6.250E+01 0.000E+00 0.000E+00 0.000E+00 0.000E+00    1      138        0        0
    138  6.250E+01 0.000E+00 0.000E+00 0.000E+00 0.000E+00    1      139        0        0
    139  6.250E+01 0.000E+00 0.000E+00 0.000E+00 0.000E+00    1      140        0        0
    140  6.250E+01 0.000E+00 0.000E+00 0.000E+00 0.000E+00    1      141        0        0
    141  6.250E+01 0.000E+00 0.000E+00 0.000E+00 0.000E+00    1      142        0        0
    142  6.250E+01 0.000E+00 0.000E+00 0.000E+00 0.000E+00    1      143        0        0
    143  6.250E+01 0.000E+00 0.000E+00 0.000E+00 0.000E+00    1      144        0        0
    144  6.250E+01 0.000E+00 0.000E+00 0.000E+00 0.000E+00    1      145        0        0
    145  6.250E+01 0.000E+00 0.000E+00 0.000E+00 0.000E+00    1      146        0        0
    146  6.250E+01 0.000E+00 0.000E+00 0.000E+00 0.000E+00    1      147        0        0
    147  6.250E+01 0.000E+00 0.000E+00 0.000E+00 0.000E+00    1      148        0        0
    148  6.250E+01 0.000E+00 0.000E+00 0.000E+00 0.000E+00    1      149        0        0
    149  6.250E+01 0.000E+00 0.000E+00 0.000E+00 0.000E+00    1      150        0        0
    150  6.250E+01 0.000E+00 0.000E+00 0.000E+00 0.000E+00    1      151        0        0
    151  6.250E+01 0.000E+00 0.000E+00 0.000E+00 0.000E+00    1      152        0        0
    152  6.250E+01 0.000E+00 0.000E+00 0.000E+00 0.000E+00    1      153        0        0
    153  6.250E+01 0.000E+00 0.000E+00 0.000E+00 0.000E+00    1      154        0        0
    154  6.250E+01 0.000E+00 0.000E+00 0.000E+00 0.000E+00    1      155        0        0
    155  6.250E+01 0.000E+00 0.000E+00 0.000E+00 0.000E+00    1      156        0        0
    156  6.250E+01 0.000E+00 0.000E+00 0.000E+00 0.000E+00    1      157        0        0
    157  6.250E+01 0.000E+00 0.000E+00 0.000E+00 0.000E+00    1      158        0        0
    158  6.250E+01 0.000E+00 0.000E+00 0.000E+00 0.000E+00    1      159        0        0
    159  6.250E+01 0.000E+00 0.000E+00 0.000E+00 0.000E+00    1      160        0        0
    160  6.250E+01 0.000E+00 0.000E+00 0.000E+00 0.000E+00    1      161        0        0


         STREAMBED PROPERTIES AND STREAM DIMENSIONS

 SEGMENT     WIDTH OF STREAM     DEPTH OF STREAM    STREAM ROUGHNESS
    No.     UPPER     LOWER     UPPER     LOWER     CHANNEL      BANK

     1    5.000E+00 5.000E+00                      1.000E-01
     2    5.000E+00 5.000E+00                      1.000E-01
     3    5.000E+00 5.000E+00                      1.000E-01
     4    5.000E+00 5.000E+00                      1.000E-01
     5    5.000E+00 5.000E+00                      1.000E-01
     6    5.000E+00 5.000E+00                      1.000E-01
     7    5.000E+00 5.000E+00                      1.000E-01
     8    5.000E+00 5.000E+00                      1.000E-01
     9    5.000E+00 5.000E+00                      1.000E-01
    10    5.000E+00 5.000E+00                      1.000E-01
    11    5.000E+00 5.000E+00                      1.000E-01
    12    5.000E+00 5.000E+00                      1.000E-01
    13    5.000E+00 5.000E+00                      1.000E-01
    14    5.000E+00 5.000E+00                      1.000E-01
    15    5.000E+00 5.000E+00                      1.000E-01
    16    5.000E+00 5.000E+00                      1.000E-01
    17    5.000E+00 5.000E+00                      1.000E-01
    18    5.000E+00 5.000E+00                      1.000E-01
    19    5.000E+00 5.000E+00                      1.000E-01
    20    5.000E+00 5.000E+00                      1.000E-01
    21    5.000E+00 5.000E+00                      1.000E-01
    22    5.000E+00 5.000E+00                      1.000E-01
    23    5.000E+00 5.000E+00                      1.000E-01
    24    5.000E+00 5.000E+00                      1.000E-01
    25    5.000E+00 5.000E+00                      1.000E-01
    26    5.000E+00 5.000E+00                      1.000E-01
    27    5.000E+00 5.000E+00                      1.000E-01
    28    5.000E+00 5.000E+00                      1.000E-01
    29    5.000E+00 5.000E+00                      1.000E-01
    30    5.000E+00 5.000E+00                      1.000E-01
    31    5.000E+00 5.000E+00                      1.000E-01
    32    5.000E+00 5.000E+00                      1.000E-01
    33    5.000E+00 5.000E+00                      1.000E-01
    34    5.000E+00 5.000E+00                      1.000E-01
    35    5.000E+00 5.000E+00                      1.000E-01
    36    5.000E+00 5.000E+00                      1.000E-01
    37    5.000E+00 5.000E+00                      1.000E-01
    38    5.000E+00 5.000E+00                      1.000E-01
    39    5.000E+00 5.000E+00                      1.000E-01
    40    5.000E+00 5.000E+00                      1.000E-01
    41    5.000E+00 5.000E+00                      1.000E-01
    42    5.000E+00 5.000E+00                      1.000E-01
    43    5.000E+00 5.000E+00                      1.000E-01
    44    5.000E+00 5.000E+00                      1.000E-01
    45    5.000E+00 5.000E+00                      1.000E-01
    46    5.000E+00 5.000E+00                      1.000E-01
    47    5.000E+00 5.000E+00                      1.000E-01
    48    5.000E+00 5.000E+00                      1.000E-01
    49    5.000E+00 5.000E+00                      1.000E-01
    50    5.000E+00 5.000E+00                      1.000E-01
    51    5.000E+00 5.000E+00                      1.000E-01
    52    5.000E+00 5.000E+00                      1.000E-01
    53    5.000E+00 5.000E+00                      1.000E-01
    54    5.000E+00 5.000E+00                      1.000E-01
    55    5.000E+00 5.000E+00                      1.000E-01
    56    5.000E+00 5.000E+00                      1.000E-01
    57    5.000E+00 5.000E+00                      1.000E-01
    58    5.000E+00 5.000E+00                      1.000E-01
    59    5.000E+00 5.000E+00                      1.000E-01
    60    5.000E+00 5.000E+00                      1.000E-01
    61    5.000E+00 5.000E+00                      1.000E-01
    62    5.000E+00 5.000E+00                      1.000E-01
    63    5.000E+00 5.000E+00                      1.000E-01
    64    5.000E+00 5.000E+00                      1.000E-01
    65    5.000E+00 5.000E+00                      1.000E-01
    66    5.000E+00 5.000E+00                      1.000E-01
    67    5.000E+00 5.000E+00                      1.000E-01
    68    5.000E+00 5.000E+00                      1.000E-01
    69    5.000E+00 5.000E+00                      1.000E-01
    70    5.000E+00 5.000E+00                      1.000E-01
    71    5.000E+00 5.000E+00                      1.000E-01
    72    5.000E+00 5.000E+00                      1.000E-01
    73    5.000E+00 5.000E+00                      1.000E-01
    74    5.000E+00 5.000E+00                      1.000E-01
    75    5.000E+00 5.000E+00                      1.000E-01
    76    5.000E+00 5.000E+00                      1.000E-01
    77    5.000E+00 5.000E+00                      1.000E-01
    78    5.000E+00 5.000E+00                      1.000E-01
    79    5.000E+00 5.000E+00                      1.000E-01
    80    5.000E+00 5.000E+00                      1.000E-01
    81    5.000E+00 5.000E+00                      1.000E-01
    82    5.000E+00 5.000E+00                      1.000E-01
    83    5.000E+00 5.000E+00                      1.000E-01
    84    5.000E+00 5.000E+00                      1.000E-01
    85    5.000E+00 5.000E+00                      1.000E-01
    86    5.000E+00 5.000E+00                      1.000E-01
    87    5.000E+00 5.000E+00                      1.000E-01
    88    5.000E+00 5.000E+00                      1.000E-01
    89    5.000E+00 5.000E+00                      1.000E-01
    90    5.000E+00 5.000E+00                      1.000E-01
    91    5.000E+00 5.000E+00                      1.000E-01
    92    5.000E+00 5.000E+00                      1.000E-01
    93    5.000E+00 5.000E+00                      1.000E-01
    94    5.000E+00 5.000E+00                      1.000E-01
    95    5.000E+00 5.000E+00                      1.000E-01
    96    5.000E+00 5.000E+00                      1.000E-01
    97    5.000E+00 5.000E+00                      1.000E-01
    98    5.000E+00 5.000E+00                      1.000E-01
    99    5.000E+00 5.000E+00                      1.000E-01
   100    5.000E+00 5.000E+00                      1.000E-01
   101    5.000E+00 5.000E+00                      1.000E-01
   102    5.000E+00 5.000E+00                      1.000E-01
   103    5.000E+00 5.000E+00                      1.000E-01
   104    5.000E+00 5.000E+00                      1.000E-01
   105    5.000E+00 5.000E+00                      1.000E-01
   106    5.000E+00 5.000E+00                      1.000E-01
   107    5.000E+00 5.000E+00                      1.000E-01
   108    5.000E+00 5.000E+00                      1.000E-01
   109    5.000E+00 5.000E+00                      1.000E-01
   110    5.000E+00 5.000E+00                      1.000E-01
   111    5.000E+00 5.000E+00                      1.000E-01
   112    5.000E+00 5.000E+00                      1.000E-01
   113    5.000E+00 5.000E+00                      1.000E-01
   114    5.000E+00 5.000E+00                      1.000E-01
   115    5.000E+00 5.000E+00                      1.000E-01
   116    5.000E+00 5.000E+00                      1.000E-01
   117    5.000E+00 5.000E+00                      1.000E-01
   118    5.000E+00 5.000E+00                      1.000E-01
   119    5.000E+00 5.000E+00                      1.000E-01
   120    5.000E+00 5.000E+00                      1.000E-01
   121    5.000E+00 5.000E+00                      1.000E-01
   122    5.000E+00 5.000E+00                      1.000E-01
   123    5.000E+00 5.000E+00                      1.000E-01
   124    5.000E+00 5.000E+00                      1.000E-01
   125    5.000E+00 5.000E+00                      1.000E-01
   126    5.000E+00 5.000E+00                      1.000E-01
   127    5.000E+00 5.000E+00                      1.000E-01
   128    5.000E+00 5.000E+00                      1.000E-01
   129    5.000E+00 5.000E+00                      1.000E-01
   130    5.000E+00 5.000E+00                      1.000E-01
   131    5.000E+00 5.000E+00                      1.000E-01
   132    5.000E+00 5.000E+00                      1.000E-01
   133    5.000E+00 5.000E+00                      1.000E-01
   134    5.000E+00 5.000E+00                      1.000E-01
   135    5.000E+00 5.000E+00                      1.000E-01
   136    5.000E+00 5.000E+00                      1.000E-01
   137    5.000E+00 5.000E+00                      1.000E-01
   138    5.000E+00 5.000E+00                      1.000E-01
   139    5.000E+00 5.000E+00                      1.000E-01
   140    5.000E+00 5.000E+00                      1.000E-01
   141    5.000E+00 5.000E+00                      1.000E-01
   142    5.000E+00 5.000E+00                      1.000E-01
   143    5.000E+00 5.000E+00                      1.000E-01
   144    5.000E+00 5.000E+00                      1.000E-01
   145    5.000E+00 5.000E+00                      1.000E-01
   146    5.000E+00 5.000E+00                      1.000E-01
   147    5.000E+00 5.000E+00                      1.000E-01
   148    5.000E+00 5.000E+00                      1.000E-01
   149    5.000E+00 5.000E+00                      1.000E-01
   150    5.000E+00 5.000E+00                      1.000E-01
   151    5.000E+00 5.000E+00                      1.000E-01
   152    5.000E+00 5.000E+00                      1.000E-01
   153    5.000E+00 5.000E+00                      1.000E-01
   154    5.000E+00 5.000E+00                      1.000E-01
   155    5.000E+00 5.000E+00                      1.000E-01
   156    5.000E+00 5.000E+00                      1.000E-01
   157    5.000E+00 5.000E+00                      1.000E-01
   158    5.000E+00 5.000E+00                      1.000E-01
   159    5.000E+00 5.000E+00                      1.000E-01
   160    5.000E+00 5.000E+00                      1.000E-01



 
 SOLVING FOR HEAD 


 OUTER ITERATION SUMMARY
 -----------------------
 BT: Backtracking; LA: Linear Acceleration; UR: Under-relaxation

    Outer-Iteration  Inner-Iteration    Maximum Head Change  Maximum Head Change
        Number           Count               Value              Location
LA         1                7              -0.10815                   710           GWF-node number
LA         2                4              -0.23002E-02              1094           GWF-node number
LA         3                2              -0.13971E-03              1094           GWF-node number
LA         4                1               0.23638E-04              4431           GWF-node number


     4 CALLS TO SPARSE MATRIX SOLVER PACKAGE  IN FLOW TIME STEP   1 STRESS PERIOD  22

 TOTAL OF       4OUTER ITERATIONS
  MAXIMUM CHANGE FOR EACH ITERATION:
   MAX. CHANGE        NODE  MAX. CHANGE        NODE  MAX. CHANGE        NODE  MAX. CHANGE        NODE  MAX. CHANGE        NODE
 ------------------------------------------------------------------------------------------------------------------------------------
  -0.10815    ,        710 -0.23002E-02,       1094 -0.13971E-03,       1094  0.23638E-04,       4431

 OUTPUT CONTROL FOR STRESS PERIOD       22   TIME STEP        1
    SAVE HEAD FOR ALL LAYERS
    SAVE BUDGET
 UBDSV1U SAVING "         STORAGE" ON UNIT  50 AT TIME STEP      1, STRESS PERIOD     22
 UBDSV2U SAVING "   CONSTANT HEAD" ON UNIT  50 AT TIME STEP      1, STRESS PERIOD     22
 UBDSV1U SAVING "   FLOW JA FACE " ON UNIT  50 AT TIME STEP      1, STRESS PERIOD     22
 UBDSV4U SAVING "           WELLS" ON UNIT  50 AT TIME STEP      1, STRESS PERIOD     22
 UBDSV4U SAVING " HEAD DEP BOUNDS" ON UNIT  50 AT TIME STEP      1, STRESS PERIOD     22
 UBDSV3U SAVING "        RECHARGE" ON UNIT  50 AT TIME STEP      1, STRESS PERIOD     22
 UBDSV2U SAVING "  STREAM LEAKAGE" ON UNIT  50 AT TIME STEP      1, STRESS PERIOD     22




 HEAD WILL BE SAVED ON UNIT   51 AT END OF TIME STEP   1, STRESS PERIOD   22
1
  VOLUMETRIC BUDGET FOR ENTIRE MODEL AT END OF TIME STEP       1 IN STRESS PERIOD      22
  ---------------------------------------------------------------------------------------

     CUMULATIVE VOLUMES      L**3       RATES FOR THIS TIME STEP      L**3/T
     ------------------                 ------------------------

           IN:                                      IN:
           ---                                      ---
             STORAGE =      656345.8351               STORAGE =         712.0984
       CONSTANT HEAD =           0.0000         CONSTANT HEAD =           0.0000
               WELLS =           0.0000                 WELLS =           0.0000
     HEAD DEP BOUNDS =      233445.8903       HEAD DEP BOUNDS =         639.1954
            RECHARGE =     1633574.4836              RECHARGE =        1585.0890
      STREAM LEAKAGE =      111532.2860        STREAM LEAKAGE =         587.7364

            TOTAL IN =     2634898.4950              TOTAL IN =        3524.1192

          OUT:                                     OUT:
          ----                                     ----
             STORAGE =      492160.3787               STORAGE =           3.8052
       CONSTANT HEAD =           0.0000         CONSTANT HEAD =           0.0000
               WELLS =     1519737.0641                 WELLS =        3274.0479
     HEAD DEP BOUNDS =      319663.0411       HEAD DEP BOUNDS =         121.9961
            RECHARGE =           0.0000              RECHARGE =           0.0000
      STREAM LEAKAGE =      303347.6671        STREAM LEAKAGE =         124.2551

           TOTAL OUT =     2634908.1509             TOTAL OUT =        3524.1043

            IN - OUT =          -9.6559              IN - OUT =       1.4879E-02

 PERCENT DISCREPANCY =          -0.00     PERCENT DISCREPANCY =           0.00






          TIME SUMMARY AT END OF TIME STEP         1 IN STRESS PERIOD        22
                    SECONDS     MINUTES      HOURS       DAYS        YEARS
                    -----------------------------------------------------------
   TIME STEP LENGTH 2.59200E+06  43200.      720.00      30.000     8.21355E-02
 STRESS PERIOD TIME 2.59200E+06  43200.      720.00      30.000     8.21355E-02
         TOTAL TIME 5.52960E+07 9.21600E+05  15360.      640.00      1.7522    
1
1
                            STRESS PERIOD NO.   23, LENGTH =   31.00000    
                            -----------------------------------------------

                              NUMBER OF TIME STEPS =     1

                               MULTIPLIER FOR DELT =     1.000

                            INITIAL TIME STEP SIZE =   31.00000    

 WEL -- WELL PACKAGE, VERSION 7, 5/2/2005 INPUT READ FROM UNIT   20

 WELL NO.      NODE       STRESS FACTOR         
 -----------------------------------------------
      1        3324      -430.4    
      2        3409      -430.4    
      3        3737      -430.4    
      4        3971      -430.4    
      5        4092      -430.4    
      6        4297      -430.4    

      6 WELLS

 GHB -- GENERAL-HEAD BOUNDARY PACKAGE, VERSION 7, 5/2/2005
         INPUT READ FROM UNIT   30

 BOUND NO.     NODE         STAGE         CONDUCTANCE         
 -------------------------------------------------------------
      1        1473       33.50           70.00    
      2        1474       33.50           70.00    
      3        1475       33.50           70.00    
      4        1476       33.50           70.00    
      5        1477       33.50           70.00    
      6        1478       33.50           70.00    
      7        1479       33.50           70.00    
      8        1480       33.50           70.00    
      9        1481       33.50           70.00    
     10        1482       33.50           70.00    
     11        2972       33.50           70.00    
     12        2973       33.50           70.00    
     13        2974       33.50           70.00    
     14        2975       33.50           70.00    
     15        2976       33.50           70.00    
     16        2977       33.50           70.00    
     17        2978       33.50           70.00    
     18        2979       33.50           70.00    
     19        2980       33.50           70.00    
     20        2981       33.50           70.00    
     21        4471       33.50           70.00    
     22        4472       33.50           70.00    
     23        4473       33.50           70.00    
     24        4474       33.50           70.00    
     25        4475       33.50           70.00    
     26        4476       33.50           70.00    
     27        4477       33.50           70.00    
     28        4478       33.50           70.00    
     29        4479       33.50           70.00    
     30        4480       33.50           70.00    
     31        2999       35.50           70.00    
     32        3000       35.50           70.00    
     33        3001       35.50           70.00    
     34        3002       35.50           70.00    
     35        3003       35.50           70.00    
     36        3004       35.50           70.00    
     37        3005       35.50           70.00    
     38        3006       35.50           70.00    
     39        3007       35.50           70.00    
     40        3008       35.50           70.00    
     41        3009       35.50           70.00    
     42        3010       35.50           70.00    
     43        3011       35.50           70.00    
     44        3012       35.50           70.00    
     45        3013       35.50           70.00    
     46        3023       35.50           4.375    
     47        3027       35.50           17.50    
     48        3028       35.50           70.00    
     49        3029       35.50           70.00    
     50        3030       35.50           70.00    

     50 GHB CELLS

 RCH -- RECHARGE PACKAGE, VERSION 7, 5/2/2005 INPUT READ FROM UNIT   31



                           RECHARGE
 READING ON UNIT   31 WITH FORMAT: (1499E15.6)         



 CLASSIFICATION & COUNT OF STREAM SEGMENTS BASED ON SOURCE OF INFLOW:

                HEADWATER     DIVERSION     RECEIVES TRIBUTARY FLOW
                ---------     ---------     -----------------------
                     1              0             159



                    INPUT DATA FOR EACH STREAM SEGMENT
 ---------------------------------------------------------------------------------------------

 SEGMENT    SEG.     INFLOW   OVERLAND   STREAM    STREAM   ICALC  OUTFLOW  DIVERSION PRIORITY
    NO.    LENGTH     RATE     RUNOFF      ET       PPT.    METH.  TO SEG.  FROM SEG.    NO.

      1  6.250E+01 9.398E+03 0.000E+00 0.000E+00 0.000E+00    1        2        0        0
      2  6.250E+01 0.000E+00 0.000E+00 0.000E+00 0.000E+00    1        3        0        0
      3  6.250E+01 0.000E+00 0.000E+00 0.000E+00 0.000E+00    1        4        0        0
      4  6.250E+01 0.000E+00 0.000E+00 0.000E+00 0.000E+00    1        5        0        0
      5  6.250E+01 0.000E+00 0.000E+00 0.000E+00 0.000E+00    1        6        0        0
      6  6.250E+01 0.000E+00 0.000E+00 0.000E+00 0.000E+00    1        7        0        0
      7  6.250E+01 0.000E+00 0.000E+00 0.000E+00 0.000E+00    1        8        0        0
      8  6.250E+01 0.000E+00 0.000E+00 0.000E+00 0.000E+00    1        9        0        0
      9  6.250E+01 0.000E+00 0.000E+00 0.000E+00 0.000E+00    1       10        0        0
     10  6.250E+01 0.000E+00 0.000E+00 0.000E+00 0.000E+00    1       11        0        0
     11  6.250E+01 0.000E+00 0.000E+00 0.000E+00 0.000E+00    1       12        0        0
     12  6.250E+01 0.000E+00 0.000E+00 0.000E+00 0.000E+00    1       13        0        0
     13  6.250E+01 0.000E+00 0.000E+00 0.000E+00 0.000E+00    1       14        0        0
     14  6.250E+01 0.000E+00 0.000E+00 0.000E+00 0.000E+00    1       15        0        0
     15  6.250E+01 0.000E+00 0.000E+00 0.000E+00 0.000E+00    1       16        0        0
     16  6.250E+01 0.000E+00 0.000E+00 0.000E+00 0.000E+00    1       17        0        0
     17  6.250E+01 0.000E+00 0.000E+00 0.000E+00 0.000E+00    1       18        0        0
     18  6.250E+01 0.000E+00 0.000E+00 0.000E+00 0.000E+00    1       19        0        0
     19  6.250E+01 0.000E+00 0.000E+00 0.000E+00 0.000E+00    1       20        0        0
     20  6.250E+01 0.000E+00 0.000E+00 0.000E+00 0.000E+00    1       21        0        0
     21  6.250E+01 0.000E+00 0.000E+00 0.000E+00 0.000E+00    1       22        0        0
     22  6.250E+01 0.000E+00 0.000E+00 0.000E+00 0.000E+00    1       23        0        0
     23  6.250E+01 0.000E+00 0.000E+00 0.000E+00 0.000E+00    1       24        0        0
     24  6.250E+01 0.000E+00 0.000E+00 0.000E+00 0.000E+00    1       25        0        0
     25  6.250E+01 0.000E+00 0.000E+00 0.000E+00 0.000E+00    1       26        0        0
     26  6.250E+01 0.000E+00 0.000E+00 0.000E+00 0.000E+00    1       27        0        0
     27  6.250E+01 0.000E+00 0.000E+00 0.000E+00 0.000E+00    1       28        0        0
     28  6.250E+01 0.000E+00 0.000E+00 0.000E+00 0.000E+00    1       29        0        0
     29  6.250E+01 0.000E+00 0.000E+00 0.000E+00 0.000E+00    1       30        0        0
     30  6.250E+01 0.000E+00 0.000E+00 0.000E+00 0.000E+00    1       31        0        0
     31  6.250E+01 0.000E+00 0.000E+00 0.000E+00 0.000E+00    1       32        0        0
     32  6.250E+01 0.000E+00 0.000E+00 0.000E+00 0.000E+00    1       33        0        0
     33  6.250E+01 0.000E+00 0.000E+00 0.000E+00 0.000E+00    1       34        0        0
     34  6.250E+01 0.000E+00 0.000E+00 0.000E+00 0.000E+00    1       35        0        0
     35  6.250E+01 0.000E+00 0.000E+00 0.000E+00 0.000E+00    1       36        0        0
     36  6.250E+01 0.000E+00 0.000E+00 0.000E+00 0.000E+00    1       37        0        0
     37  6.250E+01 0.000E+00 0.000E+00 0.000E+00 0.000E+00    1       38        0        0
     38  6.250E+01 0.000E+00 0.000E+00 0.000E+00 0.000E+00    1       39        0        0
     39  6.250E+01 0.000E+00 0.000E+00 0.000E+00 0.000E+00    1       40        0        0
     40  6.250E+01 0.000E+00 0.000E+00 0.000E+00 0.000E+00    1       41        0        0
     41  6.250E+01 0.000E+00 0.000E+00 0.000E+00 0.000E+00    1       42        0        0
     42  6.250E+01 0.000E+00 0.000E+00 0.000E+00 0.000E+00    1       43        0        0
     43  6.250E+01 0.000E+00 0.000E+00 0.000E+00 0.000E+00    1       44        0        0
     44  6.250E+01 0.000E+00 0.000E+00 0.000E+00 0.000E+00    1       45        0        0
     45  6.250E+01 0.000E+00 0.000E+00 0.000E+00 0.000E+00    1       46        0        0
     46  6.250E+01 0.000E+00 0.000E+00 0.000E+00 0.000E+00    1       47        0        0
     47  6.250E+01 0.000E+00 0.000E+00 0.000E+00 0.000E+00    1       48        0        0
     48  6.250E+01 0.000E+00 0.000E+00 0.000E+00 0.000E+00    1       49        0        0
     49  6.250E+01 0.000E+00 0.000E+00 0.000E+00 0.000E+00    1       50        0        0
     50  6.250E+01 0.000E+00 0.000E+00 0.000E+00 0.000E+00    1       51        0        0
     51  6.250E+01 0.000E+00 0.000E+00 0.000E+00 0.000E+00    1       52        0        0
     52  6.250E+01 0.000E+00 0.000E+00 0.000E+00 0.000E+00    1       53        0        0
     53  6.250E+01 0.000E+00 0.000E+00 0.000E+00 0.000E+00    1       54        0        0
     54  6.250E+01 0.000E+00 0.000E+00 0.000E+00 0.000E+00    1       55        0        0
     55  6.250E+01 0.000E+00 0.000E+00 0.000E+00 0.000E+00    1       56        0        0
     56  6.250E+01 0.000E+00 0.000E+00 0.000E+00 0.000E+00    1       57        0        0
     57  6.250E+01 0.000E+00 0.000E+00 0.000E+00 0.000E+00    1       58        0        0
     58  6.250E+01 0.000E+00 0.000E+00 0.000E+00 0.000E+00    1       59        0        0
     59  6.250E+01 0.000E+00 0.000E+00 0.000E+00 0.000E+00    1       60        0        0
     60  6.250E+01 0.000E+00 0.000E+00 0.000E+00 0.000E+00    1       61        0        0
     61  6.250E+01 0.000E+00 0.000E+00 0.000E+00 0.000E+00    1       62        0        0
     62  6.250E+01 0.000E+00 0.000E+00 0.000E+00 0.000E+00    1       63        0        0
     63  6.250E+01 0.000E+00 0.000E+00 0.000E+00 0.000E+00    1       64        0        0
     64  6.250E+01 0.000E+00 0.000E+00 0.000E+00 0.000E+00    1       65        0        0
     65  6.250E+01 0.000E+00 0.000E+00 0.000E+00 0.000E+00    1       66        0        0
     66  6.250E+01 0.000E+00 0.000E+00 0.000E+00 0.000E+00    1       67        0        0
     67  6.250E+01 0.000E+00 0.000E+00 0.000E+00 0.000E+00    1       68        0        0
     68  6.250E+01 0.000E+00 0.000E+00 0.000E+00 0.000E+00    1       69        0        0
     69  6.250E+01 0.000E+00 0.000E+00 0.000E+00 0.000E+00    1       70        0        0
     70  6.250E+01 0.000E+00 0.000E+00 0.000E+00 0.000E+00    1       71        0        0
     71  6.250E+01 0.000E+00 0.000E+00 0.000E+00 0.000E+00    1       72        0        0
     72  6.250E+01 0.000E+00 0.000E+00 0.000E+00 0.000E+00    1       73        0        0
     73  6.250E+01 0.000E+00 0.000E+00 0.000E+00 0.000E+00    1       74        0        0
     74  6.250E+01 0.000E+00 0.000E+00 0.000E+00 0.000E+00    1       75        0        0
     75  6.250E+01 0.000E+00 0.000E+00 0.000E+00 0.000E+00    1       76        0        0
     76  6.250E+01 0.000E+00 0.000E+00 0.000E+00 0.000E+00    1       77        0        0
     77  6.250E+01 0.000E+00 0.000E+00 0.000E+00 0.000E+00    1       78        0        0
     78  6.250E+01 0.000E+00 0.000E+00 0.000E+00 0.000E+00    1       79        0        0
     79  6.250E+01 0.000E+00 0.000E+00 0.000E+00 0.000E+00    1       80        0        0
     80  6.250E+01 0.000E+00 0.000E+00 0.000E+00 0.000E+00    1       81        0        0
     81  6.250E+01 0.000E+00 0.000E+00 0.000E+00 0.000E+00    1       82        0        0
     82  6.250E+01 0.000E+00 0.000E+00 0.000E+00 0.000E+00    1       83        0        0
     83  6.250E+01 0.000E+00 0.000E+00 0.000E+00 0.000E+00    1       84        0        0
     84  6.250E+01 0.000E+00 0.000E+00 0.000E+00 0.000E+00    1       85        0        0
     85  6.250E+01 0.000E+00 0.000E+00 0.000E+00 0.000E+00    1       86        0        0
     86  6.250E+01 0.000E+00 0.000E+00 0.000E+00 0.000E+00    1       87        0        0
     87  6.250E+01 0.000E+00 0.000E+00 0.000E+00 0.000E+00    1       88        0        0
     88  6.250E+01 0.000E+00 0.000E+00 0.000E+00 0.000E+00    1       89        0        0
     89  6.250E+01 0.000E+00 0.000E+00 0.000E+00 0.000E+00    1       90        0        0
     90  6.250E+01 0.000E+00 0.000E+00 0.000E+00 0.000E+00    1       91        0        0
     91  6.250E+01 0.000E+00 0.000E+00 0.000E+00 0.000E+00    1       92        0        0
     92  6.250E+01 0.000E+00 0.000E+00 0.000E+00 0.000E+00    1       93        0        0
     93  6.250E+01 0.000E+00 0.000E+00 0.000E+00 0.000E+00    1       94        0        0
     94  6.250E+01 0.000E+00 0.000E+00 0.000E+00 0.000E+00    1       95        0        0
     95  6.250E+01 0.000E+00 0.000E+00 0.000E+00 0.000E+00    1       96        0        0
     96  6.250E+01 0.000E+00 0.000E+00 0.000E+00 0.000E+00    1       97        0        0
     97  6.250E+01 0.000E+00 0.000E+00 0.000E+00 0.000E+00    1       98        0        0
     98  6.250E+01 0.000E+00 0.000E+00 0.000E+00 0.000E+00    1       99        0        0
     99  6.250E+01 0.000E+00 0.000E+00 0.000E+00 0.000E+00    1      100        0        0
    100  6.250E+01 0.000E+00 0.000E+00 0.000E+00 0.000E+00    1      101        0        0
    101  6.250E+01 0.000E+00 0.000E+00 0.000E+00 0.000E+00    1      102        0        0
    102  6.250E+01 0.000E+00 0.000E+00 0.000E+00 0.000E+00    1      103        0        0
    103  6.250E+01 0.000E+00 0.000E+00 0.000E+00 0.000E+00    1      104        0        0
    104  6.250E+01 0.000E+00 0.000E+00 0.000E+00 0.000E+00    1      105        0        0
    105  6.250E+01 0.000E+00 0.000E+00 0.000E+00 0.000E+00    1      106        0        0
    106  6.250E+01 0.000E+00 0.000E+00 0.000E+00 0.000E+00    1      107        0        0
    107  6.250E+01 0.000E+00 0.000E+00 0.000E+00 0.000E+00    1      108        0        0
    108  6.250E+01 0.000E+00 0.000E+00 0.000E+00 0.000E+00    1      109        0        0
    109  6.250E+01 0.000E+00 0.000E+00 0.000E+00 0.000E+00    1      110        0        0
    110  6.250E+01 0.000E+00 0.000E+00 0.000E+00 0.000E+00    1      111        0        0
    111  6.250E+01 0.000E+00 0.000E+00 0.000E+00 0.000E+00    1      112        0        0
    112  6.250E+01 0.000E+00 0.000E+00 0.000E+00 0.000E+00    1      113        0        0
    113  6.250E+01 0.000E+00 0.000E+00 0.000E+00 0.000E+00    1      114        0        0
    114  6.250E+01 0.000E+00 0.000E+00 0.000E+00 0.000E+00    1      115        0        0
    115  6.250E+01 0.000E+00 0.000E+00 0.000E+00 0.000E+00    1      116        0        0
    116  6.250E+01 0.000E+00 0.000E+00 0.000E+00 0.000E+00    1      117        0        0
    117  6.250E+01 0.000E+00 0.000E+00 0.000E+00 0.000E+00    1      118        0        0
    118  6.250E+01 0.000E+00 0.000E+00 0.000E+00 0.000E+00    1      119        0        0
    119  6.250E+01 0.000E+00 0.000E+00 0.000E+00 0.000E+00    1      120        0        0
    120  6.250E+01 0.000E+00 0.000E+00 0.000E+00 0.000E+00    1      121        0        0
    121  6.250E+01 0.000E+00 0.000E+00 0.000E+00 0.000E+00    1      122        0        0
    122  6.250E+01 0.000E+00 0.000E+00 0.000E+00 0.000E+00    1      123        0        0
    123  6.250E+01 0.000E+00 0.000E+00 0.000E+00 0.000E+00    1      124        0        0
    124  6.250E+01 0.000E+00 0.000E+00 0.000E+00 0.000E+00    1      125        0        0
    125  6.250E+01 0.000E+00 0.000E+00 0.000E+00 0.000E+00    1      126        0        0
    126  6.250E+01 0.000E+00 0.000E+00 0.000E+00 0.000E+00    1      127        0        0
    127  6.250E+01 0.000E+00 0.000E+00 0.000E+00 0.000E+00    1      128        0        0
    128  6.250E+01 0.000E+00 0.000E+00 0.000E+00 0.000E+00    1      129        0        0
    129  6.250E+01 0.000E+00 0.000E+00 0.000E+00 0.000E+00    1      130        0        0
    130  6.250E+01 0.000E+00 0.000E+00 0.000E+00 0.000E+00    1      131        0        0
    131  6.250E+01 0.000E+00 0.000E+00 0.000E+00 0.000E+00    1      132        0        0
    132  6.250E+01 0.000E+00 0.000E+00 0.000E+00 0.000E+00    1      133        0        0
    133  6.250E+01 0.000E+00 0.000E+00 0.000E+00 0.000E+00    1      134        0        0
    134  6.250E+01 0.000E+00 0.000E+00 0.000E+00 0.000E+00    1      135        0        0
    135  6.250E+01 0.000E+00 0.000E+00 0.000E+00 0.000E+00    1      136        0        0
    136  6.250E+01 0.000E+00 0.000E+00 0.000E+00 0.000E+00    1      137        0        0
    137  6.250E+01 0.000E+00 0.000E+00 0.000E+00 0.000E+00    1      138        0        0
    138  6.250E+01 0.000E+00 0.000E+00 0.000E+00 0.000E+00    1      139        0        0
    139  6.250E+01 0.000E+00 0.000E+00 0.000E+00 0.000E+00    1      140        0        0
    140  6.250E+01 0.000E+00 0.000E+00 0.000E+00 0.000E+00    1      141        0        0
    141  6.250E+01 0.000E+00 0.000E+00 0.000E+00 0.000E+00    1      142        0        0
    142  6.250E+01 0.000E+00 0.000E+00 0.000E+00 0.000E+00    1      143        0        0
    143  6.250E+01 0.000E+00 0.000E+00 0.000E+00 0.000E+00    1      144        0        0
    144  6.250E+01 0.000E+00 0.000E+00 0.000E+00 0.000E+00    1      145        0        0
    145  6.250E+01 0.000E+00 0.000E+00 0.000E+00 0.000E+00    1      146        0        0
    146  6.250E+01 0.000E+00 0.000E+00 0.000E+00 0.000E+00    1      147        0        0
    147  6.250E+01 0.000E+00 0.000E+00 0.000E+00 0.000E+00    1      148        0        0
    148  6.250E+01 0.000E+00 0.000E+00 0.000E+00 0.000E+00    1      149        0        0
    149  6.250E+01 0.000E+00 0.000E+00 0.000E+00 0.000E+00    1      150        0        0
    150  6.250E+01 0.000E+00 0.000E+00 0.000E+00 0.000E+00    1      151        0        0
    151  6.250E+01 0.000E+00 0.000E+00 0.000E+00 0.000E+00    1      152        0        0
    152  6.250E+01 0.000E+00 0.000E+00 0.000E+00 0.000E+00    1      153        0        0
    153  6.250E+01 0.000E+00 0.000E+00 0.000E+00 0.000E+00    1      154        0        0
    154  6.250E+01 0.000E+00 0.000E+00 0.000E+00 0.000E+00    1      155        0        0
    155  6.250E+01 0.000E+00 0.000E+00 0.000E+00 0.000E+00    1      156        0        0
    156  6.250E+01 0.000E+00 0.000E+00 0.000E+00 0.000E+00    1      157        0        0
    157  6.250E+01 0.000E+00 0.000E+00 0.000E+00 0.000E+00    1      158        0        0
    158  6.250E+01 0.000E+00 0.000E+00 0.000E+00 0.000E+00    1      159        0        0
    159  6.250E+01 0.000E+00 0.000E+00 0.000E+00 0.000E+00    1      160        0        0
    160  6.250E+01 0.000E+00 0.000E+00 0.000E+00 0.000E+00    1      161        0        0


         STREAMBED PROPERTIES AND STREAM DIMENSIONS

 SEGMENT     WIDTH OF STREAM     DEPTH OF STREAM    STREAM ROUGHNESS
    No.     UPPER     LOWER     UPPER     LOWER     CHANNEL      BANK

     1    5.000E+00 5.000E+00                      1.000E-01
     2    5.000E+00 5.000E+00                      1.000E-01
     3    5.000E+00 5.000E+00                      1.000E-01
     4    5.000E+00 5.000E+00                      1.000E-01
     5    5.000E+00 5.000E+00                      1.000E-01
     6    5.000E+00 5.000E+00                      1.000E-01
     7    5.000E+00 5.000E+00                      1.000E-01
     8    5.000E+00 5.000E+00                      1.000E-01
     9    5.000E+00 5.000E+00                      1.000E-01
    10    5.000E+00 5.000E+00                      1.000E-01
    11    5.000E+00 5.000E+00                      1.000E-01
    12    5.000E+00 5.000E+00                      1.000E-01
    13    5.000E+00 5.000E+00                      1.000E-01
    14    5.000E+00 5.000E+00                      1.000E-01
    15    5.000E+00 5.000E+00                      1.000E-01
    16    5.000E+00 5.000E+00                      1.000E-01
    17    5.000E+00 5.000E+00                      1.000E-01
    18    5.000E+00 5.000E+00                      1.000E-01
    19    5.000E+00 5.000E+00                      1.000E-01
    20    5.000E+00 5.000E+00                      1.000E-01
    21    5.000E+00 5.000E+00                      1.000E-01
    22    5.000E+00 5.000E+00                      1.000E-01
    23    5.000E+00 5.000E+00                      1.000E-01
    24    5.000E+00 5.000E+00                      1.000E-01
    25    5.000E+00 5.000E+00                      1.000E-01
    26    5.000E+00 5.000E+00                      1.000E-01
    27    5.000E+00 5.000E+00                      1.000E-01
    28    5.000E+00 5.000E+00                      1.000E-01
    29    5.000E+00 5.000E+00                      1.000E-01
    30    5.000E+00 5.000E+00                      1.000E-01
    31    5.000E+00 5.000E+00                      1.000E-01
    32    5.000E+00 5.000E+00                      1.000E-01
    33    5.000E+00 5.000E+00                      1.000E-01
    34    5.000E+00 5.000E+00                      1.000E-01
    35    5.000E+00 5.000E+00                      1.000E-01
    36    5.000E+00 5.000E+00                      1.000E-01
    37    5.000E+00 5.000E+00                      1.000E-01
    38    5.000E+00 5.000E+00                      1.000E-01
    39    5.000E+00 5.000E+00                      1.000E-01
    40    5.000E+00 5.000E+00                      1.000E-01
    41    5.000E+00 5.000E+00                      1.000E-01
    42    5.000E+00 5.000E+00                      1.000E-01
    43    5.000E+00 5.000E+00                      1.000E-01
    44    5.000E+00 5.000E+00                      1.000E-01
    45    5.000E+00 5.000E+00                      1.000E-01
    46    5.000E+00 5.000E+00                      1.000E-01
    47    5.000E+00 5.000E+00                      1.000E-01
    48    5.000E+00 5.000E+00                      1.000E-01
    49    5.000E+00 5.000E+00                      1.000E-01
    50    5.000E+00 5.000E+00                      1.000E-01
    51    5.000E+00 5.000E+00                      1.000E-01
    52    5.000E+00 5.000E+00                      1.000E-01
    53    5.000E+00 5.000E+00                      1.000E-01
    54    5.000E+00 5.000E+00                      1.000E-01
    55    5.000E+00 5.000E+00                      1.000E-01
    56    5.000E+00 5.000E+00                      1.000E-01
    57    5.000E+00 5.000E+00                      1.000E-01
    58    5.000E+00 5.000E+00                      1.000E-01
    59    5.000E+00 5.000E+00                      1.000E-01
    60    5.000E+00 5.000E+00                      1.000E-01
    61    5.000E+00 5.000E+00                      1.000E-01
    62    5.000E+00 5.000E+00                      1.000E-01
    63    5.000E+00 5.000E+00                      1.000E-01
    64    5.000E+00 5.000E+00                      1.000E-01
    65    5.000E+00 5.000E+00                      1.000E-01
    66    5.000E+00 5.000E+00                      1.000E-01
    67    5.000E+00 5.000E+00                      1.000E-01
    68    5.000E+00 5.000E+00                      1.000E-01
    69    5.000E+00 5.000E+00                      1.000E-01
    70    5.000E+00 5.000E+00                      1.000E-01
    71    5.000E+00 5.000E+00                      1.000E-01
    72    5.000E+00 5.000E+00                      1.000E-01
    73    5.000E+00 5.000E+00                      1.000E-01
    74    5.000E+00 5.000E+00                      1.000E-01
    75    5.000E+00 5.000E+00                      1.000E-01
    76    5.000E+00 5.000E+00                      1.000E-01
    77    5.000E+00 5.000E+00                      1.000E-01
    78    5.000E+00 5.000E+00                      1.000E-01
    79    5.000E+00 5.000E+00                      1.000E-01
    80    5.000E+00 5.000E+00                      1.000E-01
    81    5.000E+00 5.000E+00                      1.000E-01
    82    5.000E+00 5.000E+00                      1.000E-01
    83    5.000E+00 5.000E+00                      1.000E-01
    84    5.000E+00 5.000E+00                      1.000E-01
    85    5.000E+00 5.000E+00                      1.000E-01
    86    5.000E+00 5.000E+00                      1.000E-01
    87    5.000E+00 5.000E+00                      1.000E-01
    88    5.000E+00 5.000E+00                      1.000E-01
    89    5.000E+00 5.000E+00                      1.000E-01
    90    5.000E+00 5.000E+00                      1.000E-01
    91    5.000E+00 5.000E+00                      1.000E-01
    92    5.000E+00 5.000E+00                      1.000E-01
    93    5.000E+00 5.000E+00                      1.000E-01
    94    5.000E+00 5.000E+00                      1.000E-01
    95    5.000E+00 5.000E+00                      1.000E-01
    96    5.000E+00 5.000E+00                      1.000E-01
    97    5.000E+00 5.000E+00                      1.000E-01
    98    5.000E+00 5.000E+00                      1.000E-01
    99    5.000E+00 5.000E+00                      1.000E-01
   100    5.000E+00 5.000E+00                      1.000E-01
   101    5.000E+00 5.000E+00                      1.000E-01
   102    5.000E+00 5.000E+00                      1.000E-01
   103    5.000E+00 5.000E+00                      1.000E-01
   104    5.000E+00 5.000E+00                      1.000E-01
   105    5.000E+00 5.000E+00                      1.000E-01
   106    5.000E+00 5.000E+00                      1.000E-01
   107    5.000E+00 5.000E+00                      1.000E-01
   108    5.000E+00 5.000E+00                      1.000E-01
   109    5.000E+00 5.000E+00                      1.000E-01
   110    5.000E+00 5.000E+00                      1.000E-01
   111    5.000E+00 5.000E+00                      1.000E-01
   112    5.000E+00 5.000E+00                      1.000E-01
   113    5.000E+00 5.000E+00                      1.000E-01
   114    5.000E+00 5.000E+00                      1.000E-01
   115    5.000E+00 5.000E+00                      1.000E-01
   116    5.000E+00 5.000E+00                      1.000E-01
   117    5.000E+00 5.000E+00                      1.000E-01
   118    5.000E+00 5.000E+00                      1.000E-01
   119    5.000E+00 5.000E+00                      1.000E-01
   120    5.000E+00 5.000E+00                      1.000E-01
   121    5.000E+00 5.000E+00                      1.000E-01
   122    5.000E+00 5.000E+00                      1.000E-01
   123    5.000E+00 5.000E+00                      1.000E-01
   124    5.000E+00 5.000E+00                      1.000E-01
   125    5.000E+00 5.000E+00                      1.000E-01
   126    5.000E+00 5.000E+00                      1.000E-01
   127    5.000E+00 5.000E+00                      1.000E-01
   128    5.000E+00 5.000E+00                      1.000E-01
   129    5.000E+00 5.000E+00                      1.000E-01
   130    5.000E+00 5.000E+00                      1.000E-01
   131    5.000E+00 5.000E+00                      1.000E-01
   132    5.000E+00 5.000E+00                      1.000E-01
   133    5.000E+00 5.000E+00                      1.000E-01
   134    5.000E+00 5.000E+00                      1.000E-01
   135    5.000E+00 5.000E+00                      1.000E-01
   136    5.000E+00 5.000E+00                      1.000E-01
   137    5.000E+00 5.000E+00                      1.000E-01
   138    5.000E+00 5.000E+00                      1.000E-01
   139    5.000E+00 5.000E+00                      1.000E-01
   140    5.000E+00 5.000E+00                      1.000E-01
   141    5.000E+00 5.000E+00                      1.000E-01
   142    5.000E+00 5.000E+00                      1.000E-01
   143    5.000E+00 5.000E+00                      1.000E-01
   144    5.000E+00 5.000E+00                      1.000E-01
   145    5.000E+00 5.000E+00                      1.000E-01
   146    5.000E+00 5.000E+00                      1.000E-01
   147    5.000E+00 5.000E+00                      1.000E-01
   148    5.000E+00 5.000E+00                      1.000E-01
   149    5.000E+00 5.000E+00                      1.000E-01
   150    5.000E+00 5.000E+00                      1.000E-01
   151    5.000E+00 5.000E+00                      1.000E-01
   152    5.000E+00 5.000E+00                      1.000E-01
   153    5.000E+00 5.000E+00                      1.000E-01
   154    5.000E+00 5.000E+00                      1.000E-01
   155    5.000E+00 5.000E+00                      1.000E-01
   156    5.000E+00 5.000E+00                      1.000E-01
   157    5.000E+00 5.000E+00                      1.000E-01
   158    5.000E+00 5.000E+00                      1.000E-01
   159    5.000E+00 5.000E+00                      1.000E-01
   160    5.000E+00 5.000E+00                      1.000E-01



 
 SOLVING FOR HEAD 


 OUTER ITERATION SUMMARY
 -----------------------
 BT: Backtracking; LA: Linear Acceleration; UR: Under-relaxation

    Outer-Iteration  Inner-Iteration    Maximum Head Change  Maximum Head Change
        Number           Count               Value              Location
LA         1                7               0.20642                  3324           GWF-node number
LA         2                5               0.66627E-02              1094           GWF-node number
LA         3                2               0.24134E-03              1425           GWF-node number
LA         4                1               0.21373E-04              2796           GWF-node number


     4 CALLS TO SPARSE MATRIX SOLVER PACKAGE  IN FLOW TIME STEP   1 STRESS PERIOD  23

 TOTAL OF       4OUTER ITERATIONS
  MAXIMUM CHANGE FOR EACH ITERATION:
   MAX. CHANGE        NODE  MAX. CHANGE        NODE  MAX. CHANGE        NODE  MAX. CHANGE        NODE  MAX. CHANGE        NODE
 ------------------------------------------------------------------------------------------------------------------------------------
   0.20642    ,       3324  0.66627E-02,       1094  0.24134E-03,       1425  0.21373E-04,       2796

 OUTPUT CONTROL FOR STRESS PERIOD       23   TIME STEP        1
    SAVE HEAD FOR ALL LAYERS
    SAVE BUDGET
 UBDSV1U SAVING "         STORAGE" ON UNIT  50 AT TIME STEP      1, STRESS PERIOD     23
 UBDSV2U SAVING "   CONSTANT HEAD" ON UNIT  50 AT TIME STEP      1, STRESS PERIOD     23
 UBDSV1U SAVING "   FLOW JA FACE " ON UNIT  50 AT TIME STEP      1, STRESS PERIOD     23
 UBDSV4U SAVING "           WELLS" ON UNIT  50 AT TIME STEP      1, STRESS PERIOD     23
 UBDSV4U SAVING " HEAD DEP BOUNDS" ON UNIT  50 AT TIME STEP      1, STRESS PERIOD     23
 UBDSV3U SAVING "        RECHARGE" ON UNIT  50 AT TIME STEP      1, STRESS PERIOD     23
 UBDSV2U SAVING "  STREAM LEAKAGE" ON UNIT  50 AT TIME STEP      1, STRESS PERIOD     23




 HEAD WILL BE SAVED ON UNIT   51 AT END OF TIME STEP   1, STRESS PERIOD   23
1
  VOLUMETRIC BUDGET FOR ENTIRE MODEL AT END OF TIME STEP       1 IN STRESS PERIOD      23
  ---------------------------------------------------------------------------------------

     CUMULATIVE VOLUMES      L**3       RATES FOR THIS TIME STEP      L**3/T
     ------------------                 ------------------------

           IN:                                      IN:
           ---                                      ---
             STORAGE =      656903.9883               STORAGE =          18.0049
       CONSTANT HEAD =           0.0000         CONSTANT HEAD =           0.0000
               WELLS =           0.0000                 WELLS =           0.0000
     HEAD DEP BOUNDS =      252004.1092       HEAD DEP BOUNDS =         598.6522
            RECHARGE =     1708995.9699              RECHARGE =        2432.9512
      STREAM LEAKAGE =      131583.1500        STREAM LEAKAGE =         646.8021

            TOTAL IN =     2749487.2174              TOTAL IN =        3696.4104

          OUT:                                     OUT:
          ----                                     ----
             STORAGE =      517693.2929               STORAGE =         823.6424
       CONSTANT HEAD =           0.0000         CONSTANT HEAD =           0.0000
               WELLS =     1599792.9274                 WELLS =        2582.4473
     HEAD DEP BOUNDS =      325510.1990       HEAD DEP BOUNDS =         188.6180
            RECHARGE =           0.0000              RECHARGE =           0.0000
      STREAM LEAKAGE =      306500.1593        STREAM LEAKAGE =         101.6933

           TOTAL OUT =     2749496.5786             TOTAL OUT =        3696.4010

            IN - OUT =          -9.3611              IN - OUT =       9.4474E-03

 PERCENT DISCREPANCY =          -0.00     PERCENT DISCREPANCY =           0.00






          TIME SUMMARY AT END OF TIME STEP         1 IN STRESS PERIOD        23
                    SECONDS     MINUTES      HOURS       DAYS        YEARS
                    -----------------------------------------------------------
   TIME STEP LENGTH 2.67840E+06  44640.      744.00      31.000     8.48734E-02
 STRESS PERIOD TIME 2.67840E+06  44640.      744.00      31.000     8.48734E-02
         TOTAL TIME 5.79744E+07 9.66240E+05  16104.      671.00      1.8371    
1
1
                            STRESS PERIOD NO.   24, LENGTH =   30.00000    
                            -----------------------------------------------

                              NUMBER OF TIME STEPS =     1

                               MULTIPLIER FOR DELT =     1.000

                            INITIAL TIME STEP SIZE =   30.00000    

 WEL -- WELL PACKAGE, VERSION 7, 5/2/2005 INPUT READ FROM UNIT   20

 WELL NO.      NODE       STRESS FACTOR         
 -----------------------------------------------
      1        3324      -299.0    
      2        3409      -299.0    
      3        3737      -299.0    
      4        3971      -299.0    
      5        4092      -299.0    
      6        4297      -299.0    

      6 WELLS

 GHB -- GENERAL-HEAD BOUNDARY PACKAGE, VERSION 7, 5/2/2005
         INPUT READ FROM UNIT   30

 BOUND NO.     NODE         STAGE         CONDUCTANCE         
 -------------------------------------------------------------
      1        1473       33.50           70.00    
      2        1474       33.50           70.00    
      3        1475       33.50           70.00    
      4        1476       33.50           70.00    
      5        1477       33.50           70.00    
      6        1478       33.50           70.00    
      7        1479       33.50           70.00    
      8        1480       33.50           70.00    
      9        1481       33.50           70.00    
     10        1482       33.50           70.00    
     11        2972       33.50           70.00    
     12        2973       33.50           70.00    
     13        2974       33.50           70.00    
     14        2975       33.50           70.00    
     15        2976       33.50           70.00    
     16        2977       33.50           70.00    
     17        2978       33.50           70.00    
     18        2979       33.50           70.00    
     19        2980       33.50           70.00    
     20        2981       33.50           70.00    
     21        4471       33.50           70.00    
     22        4472       33.50           70.00    
     23        4473       33.50           70.00    
     24        4474       33.50           70.00    
     25        4475       33.50           70.00    
     26        4476       33.50           70.00    
     27        4477       33.50           70.00    
     28        4478       33.50           70.00    
     29        4479       33.50           70.00    
     30        4480       33.50           70.00    
     31        2999       35.50           70.00    
     32        3000       35.50           70.00    
     33        3001       35.50           70.00    
     34        3002       35.50           70.00    
     35        3003       35.50           70.00    
     36        3004       35.50           70.00    
     37        3005       35.50           70.00    
     38        3006       35.50           70.00    
     39        3007       35.50           70.00    
     40        3008       35.50           70.00    
     41        3009       35.50           70.00    
     42        3010       35.50           70.00    
     43        3011       35.50           70.00    
     44        3012       35.50           70.00    
     45        3013       35.50           70.00    
     46        3023       35.50           4.375    
     47        3027       35.50           17.50    
     48        3028       35.50           70.00    
     49        3029       35.50           70.00    
     50        3030       35.50           70.00    

     50 GHB CELLS

 RCH -- RECHARGE PACKAGE, VERSION 7, 5/2/2005 INPUT READ FROM UNIT   31



                           RECHARGE
 READING ON UNIT   31 WITH FORMAT: (1499E15.6)         



 CLASSIFICATION & COUNT OF STREAM SEGMENTS BASED ON SOURCE OF INFLOW:

                HEADWATER     DIVERSION     RECEIVES TRIBUTARY FLOW
                ---------     ---------     -----------------------
                     1              0             159



                    INPUT DATA FOR EACH STREAM SEGMENT
 ---------------------------------------------------------------------------------------------

 SEGMENT    SEG.     INFLOW   OVERLAND   STREAM    STREAM   ICALC  OUTFLOW  DIVERSION PRIORITY
    NO.    LENGTH     RATE     RUNOFF      ET       PPT.    METH.  TO SEG.  FROM SEG.    NO.

      1  6.250E+01 1.285E+04 0.000E+00 0.000E+00 0.000E+00    1        2        0        0
      2  6.250E+01 0.000E+00 0.000E+00 0.000E+00 0.000E+00    1        3        0        0
      3  6.250E+01 0.000E+00 0.000E+00 0.000E+00 0.000E+00    1        4        0        0
      4  6.250E+01 0.000E+00 0.000E+00 0.000E+00 0.000E+00    1        5        0        0
      5  6.250E+01 0.000E+00 0.000E+00 0.000E+00 0.000E+00    1        6        0        0
      6  6.250E+01 0.000E+00 0.000E+00 0.000E+00 0.000E+00    1        7        0        0
      7  6.250E+01 0.000E+00 0.000E+00 0.000E+00 0.000E+00    1        8        0        0
      8  6.250E+01 0.000E+00 0.000E+00 0.000E+00 0.000E+00    1        9        0        0
      9  6.250E+01 0.000E+00 0.000E+00 0.000E+00 0.000E+00    1       10        0        0
     10  6.250E+01 0.000E+00 0.000E+00 0.000E+00 0.000E+00    1       11        0        0
     11  6.250E+01 0.000E+00 0.000E+00 0.000E+00 0.000E+00    1       12        0        0
     12  6.250E+01 0.000E+00 0.000E+00 0.000E+00 0.000E+00    1       13        0        0
     13  6.250E+01 0.000E+00 0.000E+00 0.000E+00 0.000E+00    1       14        0        0
     14  6.250E+01 0.000E+00 0.000E+00 0.000E+00 0.000E+00    1       15        0        0
     15  6.250E+01 0.000E+00 0.000E+00 0.000E+00 0.000E+00    1       16        0        0
     16  6.250E+01 0.000E+00 0.000E+00 0.000E+00 0.000E+00    1       17        0        0
     17  6.250E+01 0.000E+00 0.000E+00 0.000E+00 0.000E+00    1       18        0        0
     18  6.250E+01 0.000E+00 0.000E+00 0.000E+00 0.000E+00    1       19        0        0
     19  6.250E+01 0.000E+00 0.000E+00 0.000E+00 0.000E+00    1       20        0        0
     20  6.250E+01 0.000E+00 0.000E+00 0.000E+00 0.000E+00    1       21        0        0
     21  6.250E+01 0.000E+00 0.000E+00 0.000E+00 0.000E+00    1       22        0        0
     22  6.250E+01 0.000E+00 0.000E+00 0.000E+00 0.000E+00    1       23        0        0
     23  6.250E+01 0.000E+00 0.000E+00 0.000E+00 0.000E+00    1       24        0        0
     24  6.250E+01 0.000E+00 0.000E+00 0.000E+00 0.000E+00    1       25        0        0
     25  6.250E+01 0.000E+00 0.000E+00 0.000E+00 0.000E+00    1       26        0        0
     26  6.250E+01 0.000E+00 0.000E+00 0.000E+00 0.000E+00    1       27        0        0
     27  6.250E+01 0.000E+00 0.000E+00 0.000E+00 0.000E+00    1       28        0        0
     28  6.250E+01 0.000E+00 0.000E+00 0.000E+00 0.000E+00    1       29        0        0
     29  6.250E+01 0.000E+00 0.000E+00 0.000E+00 0.000E+00    1       30        0        0
     30  6.250E+01 0.000E+00 0.000E+00 0.000E+00 0.000E+00    1       31        0        0
     31  6.250E+01 0.000E+00 0.000E+00 0.000E+00 0.000E+00    1       32        0        0
     32  6.250E+01 0.000E+00 0.000E+00 0.000E+00 0.000E+00    1       33        0        0
     33  6.250E+01 0.000E+00 0.000E+00 0.000E+00 0.000E+00    1       34        0        0
     34  6.250E+01 0.000E+00 0.000E+00 0.000E+00 0.000E+00    1       35        0        0
     35  6.250E+01 0.000E+00 0.000E+00 0.000E+00 0.000E+00    1       36        0        0
     36  6.250E+01 0.000E+00 0.000E+00 0.000E+00 0.000E+00    1       37        0        0
     37  6.250E+01 0.000E+00 0.000E+00 0.000E+00 0.000E+00    1       38        0        0
     38  6.250E+01 0.000E+00 0.000E+00 0.000E+00 0.000E+00    1       39        0        0
     39  6.250E+01 0.000E+00 0.000E+00 0.000E+00 0.000E+00    1       40        0        0
     40  6.250E+01 0.000E+00 0.000E+00 0.000E+00 0.000E+00    1       41        0        0
     41  6.250E+01 0.000E+00 0.000E+00 0.000E+00 0.000E+00    1       42        0        0
     42  6.250E+01 0.000E+00 0.000E+00 0.000E+00 0.000E+00    1       43        0        0
     43  6.250E+01 0.000E+00 0.000E+00 0.000E+00 0.000E+00    1       44        0        0
     44  6.250E+01 0.000E+00 0.000E+00 0.000E+00 0.000E+00    1       45        0        0
     45  6.250E+01 0.000E+00 0.000E+00 0.000E+00 0.000E+00    1       46        0        0
     46  6.250E+01 0.000E+00 0.000E+00 0.000E+00 0.000E+00    1       47        0        0
     47  6.250E+01 0.000E+00 0.000E+00 0.000E+00 0.000E+00    1       48        0        0
     48  6.250E+01 0.000E+00 0.000E+00 0.000E+00 0.000E+00    1       49        0        0
     49  6.250E+01 0.000E+00 0.000E+00 0.000E+00 0.000E+00    1       50        0        0
     50  6.250E+01 0.000E+00 0.000E+00 0.000E+00 0.000E+00    1       51        0        0
     51  6.250E+01 0.000E+00 0.000E+00 0.000E+00 0.000E+00    1       52        0        0
     52  6.250E+01 0.000E+00 0.000E+00 0.000E+00 0.000E+00    1       53        0        0
     53  6.250E+01 0.000E+00 0.000E+00 0.000E+00 0.000E+00    1       54        0        0
     54  6.250E+01 0.000E+00 0.000E+00 0.000E+00 0.000E+00    1       55        0        0
     55  6.250E+01 0.000E+00 0.000E+00 0.000E+00 0.000E+00    1       56        0        0
     56  6.250E+01 0.000E+00 0.000E+00 0.000E+00 0.000E+00    1       57        0        0
     57  6.250E+01 0.000E+00 0.000E+00 0.000E+00 0.000E+00    1       58        0        0
     58  6.250E+01 0.000E+00 0.000E+00 0.000E+00 0.000E+00    1       59        0        0
     59  6.250E+01 0.000E+00 0.000E+00 0.000E+00 0.000E+00    1       60        0        0
     60  6.250E+01 0.000E+00 0.000E+00 0.000E+00 0.000E+00    1       61        0        0
     61  6.250E+01 0.000E+00 0.000E+00 0.000E+00 0.000E+00    1       62        0        0
     62  6.250E+01 0.000E+00 0.000E+00 0.000E+00 0.000E+00    1       63        0        0
     63  6.250E+01 0.000E+00 0.000E+00 0.000E+00 0.000E+00    1       64        0        0
     64  6.250E+01 0.000E+00 0.000E+00 0.000E+00 0.000E+00    1       65        0        0
     65  6.250E+01 0.000E+00 0.000E+00 0.000E+00 0.000E+00    1       66        0        0
     66  6.250E+01 0.000E+00 0.000E+00 0.000E+00 0.000E+00    1       67        0        0
     67  6.250E+01 0.000E+00 0.000E+00 0.000E+00 0.000E+00    1       68        0        0
     68  6.250E+01 0.000E+00 0.000E+00 0.000E+00 0.000E+00    1       69        0        0
     69  6.250E+01 0.000E+00 0.000E+00 0.000E+00 0.000E+00    1       70        0        0
     70  6.250E+01 0.000E+00 0.000E+00 0.000E+00 0.000E+00    1       71        0        0
     71  6.250E+01 0.000E+00 0.000E+00 0.000E+00 0.000E+00    1       72        0        0
     72  6.250E+01 0.000E+00 0.000E+00 0.000E+00 0.000E+00    1       73        0        0
     73  6.250E+01 0.000E+00 0.000E+00 0.000E+00 0.000E+00    1       74        0        0
     74  6.250E+01 0.000E+00 0.000E+00 0.000E+00 0.000E+00    1       75        0        0
     75  6.250E+01 0.000E+00 0.000E+00 0.000E+00 0.000E+00    1       76        0        0
     76  6.250E+01 0.000E+00 0.000E+00 0.000E+00 0.000E+00    1       77        0        0
     77  6.250E+01 0.000E+00 0.000E+00 0.000E+00 0.000E+00    1       78        0        0
     78  6.250E+01 0.000E+00 0.000E+00 0.000E+00 0.000E+00    1       79        0        0
     79  6.250E+01 0.000E+00 0.000E+00 0.000E+00 0.000E+00    1       80        0        0
     80  6.250E+01 0.000E+00 0.000E+00 0.000E+00 0.000E+00    1       81        0        0
     81  6.250E+01 0.000E+00 0.000E+00 0.000E+00 0.000E+00    1       82        0        0
     82  6.250E+01 0.000E+00 0.000E+00 0.000E+00 0.000E+00    1       83        0        0
     83  6.250E+01 0.000E+00 0.000E+00 0.000E+00 0.000E+00    1       84        0        0
     84  6.250E+01 0.000E+00 0.000E+00 0.000E+00 0.000E+00    1       85        0        0
     85  6.250E+01 0.000E+00 0.000E+00 0.000E+00 0.000E+00    1       86        0        0
     86  6.250E+01 0.000E+00 0.000E+00 0.000E+00 0.000E+00    1       87        0        0
     87  6.250E+01 0.000E+00 0.000E+00 0.000E+00 0.000E+00    1       88        0        0
     88  6.250E+01 0.000E+00 0.000E+00 0.000E+00 0.000E+00    1       89        0        0
     89  6.250E+01 0.000E+00 0.000E+00 0.000E+00 0.000E+00    1       90        0        0
     90  6.250E+01 0.000E+00 0.000E+00 0.000E+00 0.000E+00    1       91        0        0
     91  6.250E+01 0.000E+00 0.000E+00 0.000E+00 0.000E+00    1       92        0        0
     92  6.250E+01 0.000E+00 0.000E+00 0.000E+00 0.000E+00    1       93        0        0
     93  6.250E+01 0.000E+00 0.000E+00 0.000E+00 0.000E+00    1       94        0        0
     94  6.250E+01 0.000E+00 0.000E+00 0.000E+00 0.000E+00    1       95        0        0
     95  6.250E+01 0.000E+00 0.000E+00 0.000E+00 0.000E+00    1       96        0        0
     96  6.250E+01 0.000E+00 0.000E+00 0.000E+00 0.000E+00    1       97        0        0
     97  6.250E+01 0.000E+00 0.000E+00 0.000E+00 0.000E+00    1       98        0        0
     98  6.250E+01 0.000E+00 0.000E+00 0.000E+00 0.000E+00    1       99        0        0
     99  6.250E+01 0.000E+00 0.000E+00 0.000E+00 0.000E+00    1      100        0        0
    100  6.250E+01 0.000E+00 0.000E+00 0.000E+00 0.000E+00    1      101        0        0
    101  6.250E+01 0.000E+00 0.000E+00 0.000E+00 0.000E+00    1      102        0        0
    102  6.250E+01 0.000E+00 0.000E+00 0.000E+00 0.000E+00    1      103        0        0
    103  6.250E+01 0.000E+00 0.000E+00 0.000E+00 0.000E+00    1      104        0        0
    104  6.250E+01 0.000E+00 0.000E+00 0.000E+00 0.000E+00    1      105        0        0
    105  6.250E+01 0.000E+00 0.000E+00 0.000E+00 0.000E+00    1      106        0        0
    106  6.250E+01 0.000E+00 0.000E+00 0.000E+00 0.000E+00    1      107        0        0
    107  6.250E+01 0.000E+00 0.000E+00 0.000E+00 0.000E+00    1      108        0        0
    108  6.250E+01 0.000E+00 0.000E+00 0.000E+00 0.000E+00    1      109        0        0
    109  6.250E+01 0.000E+00 0.000E+00 0.000E+00 0.000E+00    1      110        0        0
    110  6.250E+01 0.000E+00 0.000E+00 0.000E+00 0.000E+00    1      111        0        0
    111  6.250E+01 0.000E+00 0.000E+00 0.000E+00 0.000E+00    1      112        0        0
    112  6.250E+01 0.000E+00 0.000E+00 0.000E+00 0.000E+00    1      113        0        0
    113  6.250E+01 0.000E+00 0.000E+00 0.000E+00 0.000E+00    1      114        0        0
    114  6.250E+01 0.000E+00 0.000E+00 0.000E+00 0.000E+00    1      115        0        0
    115  6.250E+01 0.000E+00 0.000E+00 0.000E+00 0.000E+00    1      116        0        0
    116  6.250E+01 0.000E+00 0.000E+00 0.000E+00 0.000E+00    1      117        0        0
    117  6.250E+01 0.000E+00 0.000E+00 0.000E+00 0.000E+00    1      118        0        0
    118  6.250E+01 0.000E+00 0.000E+00 0.000E+00 0.000E+00    1      119        0        0
    119  6.250E+01 0.000E+00 0.000E+00 0.000E+00 0.000E+00    1      120        0        0
    120  6.250E+01 0.000E+00 0.000E+00 0.000E+00 0.000E+00    1      121        0        0
    121  6.250E+01 0.000E+00 0.000E+00 0.000E+00 0.000E+00    1      122        0        0
    122  6.250E+01 0.000E+00 0.000E+00 0.000E+00 0.000E+00    1      123        0        0
    123  6.250E+01 0.000E+00 0.000E+00 0.000E+00 0.000E+00    1      124        0        0
    124  6.250E+01 0.000E+00 0.000E+00 0.000E+00 0.000E+00    1      125        0        0
    125  6.250E+01 0.000E+00 0.000E+00 0.000E+00 0.000E+00    1      126        0        0
    126  6.250E+01 0.000E+00 0.000E+00 0.000E+00 0.000E+00    1      127        0        0
    127  6.250E+01 0.000E+00 0.000E+00 0.000E+00 0.000E+00    1      128        0        0
    128  6.250E+01 0.000E+00 0.000E+00 0.000E+00 0.000E+00    1      129        0        0
    129  6.250E+01 0.000E+00 0.000E+00 0.000E+00 0.000E+00    1      130        0        0
    130  6.250E+01 0.000E+00 0.000E+00 0.000E+00 0.000E+00    1      131        0        0
    131  6.250E+01 0.000E+00 0.000E+00 0.000E+00 0.000E+00    1      132        0        0
    132  6.250E+01 0.000E+00 0.000E+00 0.000E+00 0.000E+00    1      133        0        0
    133  6.250E+01 0.000E+00 0.000E+00 0.000E+00 0.000E+00    1      134        0        0
    134  6.250E+01 0.000E+00 0.000E+00 0.000E+00 0.000E+00    1      135        0        0
    135  6.250E+01 0.000E+00 0.000E+00 0.000E+00 0.000E+00    1      136        0        0
    136  6.250E+01 0.000E+00 0.000E+00 0.000E+00 0.000E+00    1      137        0        0
    137  6.250E+01 0.000E+00 0.000E+00 0.000E+00 0.000E+00    1      138        0        0
    138  6.250E+01 0.000E+00 0.000E+00 0.000E+00 0.000E+00    1      139        0        0
    139  6.250E+01 0.000E+00 0.000E+00 0.000E+00 0.000E+00    1      140        0        0
    140  6.250E+01 0.000E+00 0.000E+00 0.000E+00 0.000E+00    1      141        0        0
    141  6.250E+01 0.000E+00 0.000E+00 0.000E+00 0.000E+00    1      142        0        0
    142  6.250E+01 0.000E+00 0.000E+00 0.000E+00 0.000E+00    1      143        0        0
    143  6.250E+01 0.000E+00 0.000E+00 0.000E+00 0.000E+00    1      144        0        0
    144  6.250E+01 0.000E+00 0.000E+00 0.000E+00 0.000E+00    1      145        0        0
    145  6.250E+01 0.000E+00 0.000E+00 0.000E+00 0.000E+00    1      146        0        0
    146  6.250E+01 0.000E+00 0.000E+00 0.000E+00 0.000E+00    1      147        0        0
    147  6.250E+01 0.000E+00 0.000E+00 0.000E+00 0.000E+00    1      148        0        0
    148  6.250E+01 0.000E+00 0.000E+00 0.000E+00 0.000E+00    1      149        0        0
    149  6.250E+01 0.000E+00 0.000E+00 0.000E+00 0.000E+00    1      150        0        0
    150  6.250E+01 0.000E+00 0.000E+00 0.000E+00 0.000E+00    1      151        0        0
    151  6.250E+01 0.000E+00 0.000E+00 0.000E+00 0.000E+00    1      152        0        0
    152  6.250E+01 0.000E+00 0.000E+00 0.000E+00 0.000E+00    1      153        0        0
    153  6.250E+01 0.000E+00 0.000E+00 0.000E+00 0.000E+00    1      154        0        0
    154  6.250E+01 0.000E+00 0.000E+00 0.000E+00 0.000E+00    1      155        0        0
    155  6.250E+01 0.000E+00 0.000E+00 0.000E+00 0.000E+00    1      156        0        0
    156  6.250E+01 0.000E+00 0.000E+00 0.000E+00 0.000E+00    1      157        0        0
    157  6.250E+01 0.000E+00 0.000E+00 0.000E+00 0.000E+00    1      158        0        0
    158  6.250E+01 0.000E+00 0.000E+00 0.000E+00 0.000E+00    1      159        0        0
    159  6.250E+01 0.000E+00 0.000E+00 0.000E+00 0.000E+00    1      160        0        0
    160  6.250E+01 0.000E+00 0.000E+00 0.000E+00 0.000E+00    1      161        0        0


         STREAMBED PROPERTIES AND STREAM DIMENSIONS

 SEGMENT     WIDTH OF STREAM     DEPTH OF STREAM    STREAM ROUGHNESS
    No.     UPPER     LOWER     UPPER     LOWER     CHANNEL      BANK

     1    5.000E+00 5.000E+00                      1.000E-01
     2    5.000E+00 5.000E+00                      1.000E-01
     3    5.000E+00 5.000E+00                      1.000E-01
     4    5.000E+00 5.000E+00                      1.000E-01
     5    5.000E+00 5.000E+00                      1.000E-01
     6    5.000E+00 5.000E+00                      1.000E-01
     7    5.000E+00 5.000E+00                      1.000E-01
     8    5.000E+00 5.000E+00                      1.000E-01
     9    5.000E+00 5.000E+00                      1.000E-01
    10    5.000E+00 5.000E+00                      1.000E-01
    11    5.000E+00 5.000E+00                      1.000E-01
    12    5.000E+00 5.000E+00                      1.000E-01
    13    5.000E+00 5.000E+00                      1.000E-01
    14    5.000E+00 5.000E+00                      1.000E-01
    15    5.000E+00 5.000E+00                      1.000E-01
    16    5.000E+00 5.000E+00                      1.000E-01
    17    5.000E+00 5.000E+00                      1.000E-01
    18    5.000E+00 5.000E+00                      1.000E-01
    19    5.000E+00 5.000E+00                      1.000E-01
    20    5.000E+00 5.000E+00                      1.000E-01
    21    5.000E+00 5.000E+00                      1.000E-01
    22    5.000E+00 5.000E+00                      1.000E-01
    23    5.000E+00 5.000E+00                      1.000E-01
    24    5.000E+00 5.000E+00                      1.000E-01
    25    5.000E+00 5.000E+00                      1.000E-01
    26    5.000E+00 5.000E+00                      1.000E-01
    27    5.000E+00 5.000E+00                      1.000E-01
    28    5.000E+00 5.000E+00                      1.000E-01
    29    5.000E+00 5.000E+00                      1.000E-01
    30    5.000E+00 5.000E+00                      1.000E-01
    31    5.000E+00 5.000E+00                      1.000E-01
    32    5.000E+00 5.000E+00                      1.000E-01
    33    5.000E+00 5.000E+00                      1.000E-01
    34    5.000E+00 5.000E+00                      1.000E-01
    35    5.000E+00 5.000E+00                      1.000E-01
    36    5.000E+00 5.000E+00                      1.000E-01
    37    5.000E+00 5.000E+00                      1.000E-01
    38    5.000E+00 5.000E+00                      1.000E-01
    39    5.000E+00 5.000E+00                      1.000E-01
    40    5.000E+00 5.000E+00                      1.000E-01
    41    5.000E+00 5.000E+00                      1.000E-01
    42    5.000E+00 5.000E+00                      1.000E-01
    43    5.000E+00 5.000E+00                      1.000E-01
    44    5.000E+00 5.000E+00                      1.000E-01
    45    5.000E+00 5.000E+00                      1.000E-01
    46    5.000E+00 5.000E+00                      1.000E-01
    47    5.000E+00 5.000E+00                      1.000E-01
    48    5.000E+00 5.000E+00                      1.000E-01
    49    5.000E+00 5.000E+00                      1.000E-01
    50    5.000E+00 5.000E+00                      1.000E-01
    51    5.000E+00 5.000E+00                      1.000E-01
    52    5.000E+00 5.000E+00                      1.000E-01
    53    5.000E+00 5.000E+00                      1.000E-01
    54    5.000E+00 5.000E+00                      1.000E-01
    55    5.000E+00 5.000E+00                      1.000E-01
    56    5.000E+00 5.000E+00                      1.000E-01
    57    5.000E+00 5.000E+00                      1.000E-01
    58    5.000E+00 5.000E+00                      1.000E-01
    59    5.000E+00 5.000E+00                      1.000E-01
    60    5.000E+00 5.000E+00                      1.000E-01
    61    5.000E+00 5.000E+00                      1.000E-01
    62    5.000E+00 5.000E+00                      1.000E-01
    63    5.000E+00 5.000E+00                      1.000E-01
    64    5.000E+00 5.000E+00                      1.000E-01
    65    5.000E+00 5.000E+00                      1.000E-01
    66    5.000E+00 5.000E+00                      1.000E-01
    67    5.000E+00 5.000E+00                      1.000E-01
    68    5.000E+00 5.000E+00                      1.000E-01
    69    5.000E+00 5.000E+00                      1.000E-01
    70    5.000E+00 5.000E+00                      1.000E-01
    71    5.000E+00 5.000E+00                      1.000E-01
    72    5.000E+00 5.000E+00                      1.000E-01
    73    5.000E+00 5.000E+00                      1.000E-01
    74    5.000E+00 5.000E+00                      1.000E-01
    75    5.000E+00 5.000E+00                      1.000E-01
    76    5.000E+00 5.000E+00                      1.000E-01
    77    5.000E+00 5.000E+00                      1.000E-01
    78    5.000E+00 5.000E+00                      1.000E-01
    79    5.000E+00 5.000E+00                      1.000E-01
    80    5.000E+00 5.000E+00                      1.000E-01
    81    5.000E+00 5.000E+00                      1.000E-01
    82    5.000E+00 5.000E+00                      1.000E-01
    83    5.000E+00 5.000E+00                      1.000E-01
    84    5.000E+00 5.000E+00                      1.000E-01
    85    5.000E+00 5.000E+00                      1.000E-01
    86    5.000E+00 5.000E+00                      1.000E-01
    87    5.000E+00 5.000E+00                      1.000E-01
    88    5.000E+00 5.000E+00                      1.000E-01
    89    5.000E+00 5.000E+00                      1.000E-01
    90    5.000E+00 5.000E+00                      1.000E-01
    91    5.000E+00 5.000E+00                      1.000E-01
    92    5.000E+00 5.000E+00                      1.000E-01
    93    5.000E+00 5.000E+00                      1.000E-01
    94    5.000E+00 5.000E+00                      1.000E-01
    95    5.000E+00 5.000E+00                      1.000E-01
    96    5.000E+00 5.000E+00                      1.000E-01
    97    5.000E+00 5.000E+00                      1.000E-01
    98    5.000E+00 5.000E+00                      1.000E-01
    99    5.000E+00 5.000E+00                      1.000E-01
   100    5.000E+00 5.000E+00                      1.000E-01
   101    5.000E+00 5.000E+00                      1.000E-01
   102    5.000E+00 5.000E+00                      1.000E-01
   103    5.000E+00 5.000E+00                      1.000E-01
   104    5.000E+00 5.000E+00                      1.000E-01
   105    5.000E+00 5.000E+00                      1.000E-01
   106    5.000E+00 5.000E+00                      1.000E-01
   107    5.000E+00 5.000E+00                      1.000E-01
   108    5.000E+00 5.000E+00                      1.000E-01
   109    5.000E+00 5.000E+00                      1.000E-01
   110    5.000E+00 5.000E+00                      1.000E-01
   111    5.000E+00 5.000E+00                      1.000E-01
   112    5.000E+00 5.000E+00                      1.000E-01
   113    5.000E+00 5.000E+00                      1.000E-01
   114    5.000E+00 5.000E+00                      1.000E-01
   115    5.000E+00 5.000E+00                      1.000E-01
   116    5.000E+00 5.000E+00                      1.000E-01
   117    5.000E+00 5.000E+00                      1.000E-01
   118    5.000E+00 5.000E+00                      1.000E-01
   119    5.000E+00 5.000E+00                      1.000E-01
   120    5.000E+00 5.000E+00                      1.000E-01
   121    5.000E+00 5.000E+00                      1.000E-01
   122    5.000E+00 5.000E+00                      1.000E-01
   123    5.000E+00 5.000E+00                      1.000E-01
   124    5.000E+00 5.000E+00                      1.000E-01
   125    5.000E+00 5.000E+00                      1.000E-01
   126    5.000E+00 5.000E+00                      1.000E-01
   127    5.000E+00 5.000E+00                      1.000E-01
   128    5.000E+00 5.000E+00                      1.000E-01
   129    5.000E+00 5.000E+00                      1.000E-01
   130    5.000E+00 5.000E+00                      1.000E-01
   131    5.000E+00 5.000E+00                      1.000E-01
   132    5.000E+00 5.000E+00                      1.000E-01
   133    5.000E+00 5.000E+00                      1.000E-01
   134    5.000E+00 5.000E+00                      1.000E-01
   135    5.000E+00 5.000E+00                      1.000E-01
   136    5.000E+00 5.000E+00                      1.000E-01
   137    5.000E+00 5.000E+00                      1.000E-01
   138    5.000E+00 5.000E+00                      1.000E-01
   139    5.000E+00 5.000E+00                      1.000E-01
   140    5.000E+00 5.000E+00                      1.000E-01
   141    5.000E+00 5.000E+00                      1.000E-01
   142    5.000E+00 5.000E+00                      1.000E-01
   143    5.000E+00 5.000E+00                      1.000E-01
   144    5.000E+00 5.000E+00                      1.000E-01
   145    5.000E+00 5.000E+00                      1.000E-01
   146    5.000E+00 5.000E+00                      1.000E-01
   147    5.000E+00 5.000E+00                      1.000E-01
   148    5.000E+00 5.000E+00                      1.000E-01
   149    5.000E+00 5.000E+00                      1.000E-01
   150    5.000E+00 5.000E+00                      1.000E-01
   151    5.000E+00 5.000E+00                      1.000E-01
   152    5.000E+00 5.000E+00                      1.000E-01
   153    5.000E+00 5.000E+00                      1.000E-01
   154    5.000E+00 5.000E+00                      1.000E-01
   155    5.000E+00 5.000E+00                      1.000E-01
   156    5.000E+00 5.000E+00                      1.000E-01
   157    5.000E+00 5.000E+00                      1.000E-01
   158    5.000E+00 5.000E+00                      1.000E-01
   159    5.000E+00 5.000E+00                      1.000E-01
   160    5.000E+00 5.000E+00                      1.000E-01



 
 SOLVING FOR HEAD 


 OUTER ITERATION SUMMARY
 -----------------------
 BT: Backtracking; LA: Linear Acceleration; UR: Under-relaxation

    Outer-Iteration  Inner-Iteration    Maximum Head Change  Maximum Head Change
        Number           Count               Value              Location
LA         1                8               0.30111                  3324           GWF-node number
LA         2                5               0.78881E-02              1388           GWF-node number
LA         3                2               0.26237E-03              1425           GWF-node number
LA         4                1               0.15366E-04              4368           GWF-node number


     4 CALLS TO SPARSE MATRIX SOLVER PACKAGE  IN FLOW TIME STEP   1 STRESS PERIOD  24

 TOTAL OF       4OUTER ITERATIONS
  MAXIMUM CHANGE FOR EACH ITERATION:
   MAX. CHANGE        NODE  MAX. CHANGE        NODE  MAX. CHANGE        NODE  MAX. CHANGE        NODE  MAX. CHANGE        NODE
 ------------------------------------------------------------------------------------------------------------------------------------
   0.30111    ,       3324  0.78881E-02,       1388  0.26237E-03,       1425  0.15366E-04,       4368

 OUTPUT CONTROL FOR STRESS PERIOD       24   TIME STEP        1
    SAVE HEAD FOR ALL LAYERS
    SAVE BUDGET
 UBDSV1U SAVING "         STORAGE" ON UNIT  50 AT TIME STEP      1, STRESS PERIOD     24
 UBDSV2U SAVING "   CONSTANT HEAD" ON UNIT  50 AT TIME STEP      1, STRESS PERIOD     24
 UBDSV1U SAVING "   FLOW JA FACE " ON UNIT  50 AT TIME STEP      1, STRESS PERIOD     24
 UBDSV4U SAVING "           WELLS" ON UNIT  50 AT TIME STEP      1, STRESS PERIOD     24
 UBDSV4U SAVING " HEAD DEP BOUNDS" ON UNIT  50 AT TIME STEP      1, STRESS PERIOD     24
 UBDSV3U SAVING "        RECHARGE" ON UNIT  50 AT TIME STEP      1, STRESS PERIOD     24
 UBDSV2U SAVING "  STREAM LEAKAGE" ON UNIT  50 AT TIME STEP      1, STRESS PERIOD     24




 HEAD WILL BE SAVED ON UNIT   51 AT END OF TIME STEP   1, STRESS PERIOD   24
1
  VOLUMETRIC BUDGET FOR ENTIRE MODEL AT END OF TIME STEP       1 IN STRESS PERIOD      24
  ---------------------------------------------------------------------------------------

     CUMULATIVE VOLUMES      L**3       RATES FOR THIS TIME STEP      L**3/T
     ------------------                 ------------------------

           IN:                                      IN:
           ---                                      ---
             STORAGE =      656903.9883               STORAGE =           0.0000
       CONSTANT HEAD =           0.0000         CONSTANT HEAD =           0.0000
               WELLS =           0.0000                 WELLS =           0.0000
     HEAD DEP BOUNDS =      266957.1527       HEAD DEP BOUNDS =         498.4348
            RECHARGE =     1808781.3166              RECHARGE =        3326.1782
      STREAM LEAKAGE =      146578.9532        STREAM LEAKAGE =         499.8601

            TOTAL IN =     2879221.4109              TOTAL IN =        4324.4731

          OUT:                                     OUT:
          ----                                     ----
             STORAGE =      580035.0303               STORAGE =        2078.0579
       CONSTANT HEAD =           0.0000         CONSTANT HEAD =           0.0000
               WELLS =     1653614.4435                 WELLS =        1794.0505
     HEAD DEP BOUNDS =      335556.4828       HEAD DEP BOUNDS =         334.8761
            RECHARGE =           0.0000              RECHARGE =           0.0000
      STREAM LEAKAGE =      310024.4507        STREAM LEAKAGE =         117.4764

           TOTAL OUT =     2879230.4074             TOTAL OUT =        4324.4610

            IN - OUT =          -8.9965              IN - OUT =       1.2154E-02

 PERCENT DISCREPANCY =          -0.00     PERCENT DISCREPANCY =           0.00






          TIME SUMMARY AT END OF TIME STEP         1 IN STRESS PERIOD        24
                    SECONDS     MINUTES      HOURS       DAYS        YEARS
                    -----------------------------------------------------------
   TIME STEP LENGTH 2.59200E+06  43200.      720.00      30.000     8.21355E-02
 STRESS PERIOD TIME 2.59200E+06  43200.      720.00      30.000     8.21355E-02
         TOTAL TIME 6.05664E+07 1.00944E+06  16824.      701.00      1.9192    
1
1
                            STRESS PERIOD NO.   25, LENGTH =   31.00000    
                            -----------------------------------------------

                              NUMBER OF TIME STEPS =     1

                               MULTIPLIER FOR DELT =     1.000

                            INITIAL TIME STEP SIZE =   31.00000    

 WEL -- WELL PACKAGE, VERSION 7, 5/2/2005 INPUT READ FROM UNIT   20

 WELL NO.      NODE       STRESS FACTOR         
 -----------------------------------------------
      1        3324      -189.7    
      2        3409      -189.7    
      3        3737      -189.7    
      4        3971      -189.7    
      5        4092      -189.7    
      6        4297      -189.7    

      6 WELLS

 GHB -- GENERAL-HEAD BOUNDARY PACKAGE, VERSION 7, 5/2/2005
         INPUT READ FROM UNIT   30

 BOUND NO.     NODE         STAGE         CONDUCTANCE         
 -------------------------------------------------------------
      1        1473       33.50           70.00    
      2        1474       33.50           70.00    
      3        1475       33.50           70.00    
      4        1476       33.50           70.00    
      5        1477       33.50           70.00    
      6        1478       33.50           70.00    
      7        1479       33.50           70.00    
      8        1480       33.50           70.00    
      9        1481       33.50           70.00    
     10        1482       33.50           70.00    
     11        2972       33.50           70.00    
     12        2973       33.50           70.00    
     13        2974       33.50           70.00    
     14        2975       33.50           70.00    
     15        2976       33.50           70.00    
     16        2977       33.50           70.00    
     17        2978       33.50           70.00    
     18        2979       33.50           70.00    
     19        2980       33.50           70.00    
     20        2981       33.50           70.00    
     21        4471       33.50           70.00    
     22        4472       33.50           70.00    
     23        4473       33.50           70.00    
     24        4474       33.50           70.00    
     25        4475       33.50           70.00    
     26        4476       33.50           70.00    
     27        4477       33.50           70.00    
     28        4478       33.50           70.00    
     29        4479       33.50           70.00    
     30        4480       33.50           70.00    
     31        2999       35.50           70.00    
     32        3000       35.50           70.00    
     33        3001       35.50           70.00    
     34        3002       35.50           70.00    
     35        3003       35.50           70.00    
     36        3004       35.50           70.00    
     37        3005       35.50           70.00    
     38        3006       35.50           70.00    
     39        3007       35.50           70.00    
     40        3008       35.50           70.00    
     41        3009       35.50           70.00    
     42        3010       35.50           70.00    
     43        3011       35.50           70.00    
     44        3012       35.50           70.00    
     45        3013       35.50           70.00    
     46        3023       35.50           4.375    
     47        3027       35.50           17.50    
     48        3028       35.50           70.00    
     49        3029       35.50           70.00    
     50        3030       35.50           70.00    

     50 GHB CELLS

 RCH -- RECHARGE PACKAGE, VERSION 7, 5/2/2005 INPUT READ FROM UNIT   31



                           RECHARGE
 READING ON UNIT   31 WITH FORMAT: (1499E15.6)         



 CLASSIFICATION & COUNT OF STREAM SEGMENTS BASED ON SOURCE OF INFLOW:

                HEADWATER     DIVERSION     RECEIVES TRIBUTARY FLOW
                ---------     ---------     -----------------------
                     1              0             159



                    INPUT DATA FOR EACH STREAM SEGMENT
 ---------------------------------------------------------------------------------------------

 SEGMENT    SEG.     INFLOW   OVERLAND   STREAM    STREAM   ICALC  OUTFLOW  DIVERSION PRIORITY
    NO.    LENGTH     RATE     RUNOFF      ET       PPT.    METH.  TO SEG.  FROM SEG.    NO.

      1  6.250E+01 1.547E+04 0.000E+00 0.000E+00 0.000E+00    1        2        0        0
      2  6.250E+01 0.000E+00 0.000E+00 0.000E+00 0.000E+00    1        3        0        0
      3  6.250E+01 0.000E+00 0.000E+00 0.000E+00 0.000E+00    1        4        0        0
      4  6.250E+01 0.000E+00 0.000E+00 0.000E+00 0.000E+00    1        5        0        0
      5  6.250E+01 0.000E+00 0.000E+00 0.000E+00 0.000E+00    1        6        0        0
      6  6.250E+01 0.000E+00 0.000E+00 0.000E+00 0.000E+00    1        7        0        0
      7  6.250E+01 0.000E+00 0.000E+00 0.000E+00 0.000E+00    1        8        0        0
      8  6.250E+01 0.000E+00 0.000E+00 0.000E+00 0.000E+00    1        9        0        0
      9  6.250E+01 0.000E+00 0.000E+00 0.000E+00 0.000E+00    1       10        0        0
     10  6.250E+01 0.000E+00 0.000E+00 0.000E+00 0.000E+00    1       11        0        0
     11  6.250E+01 0.000E+00 0.000E+00 0.000E+00 0.000E+00    1       12        0        0
     12  6.250E+01 0.000E+00 0.000E+00 0.000E+00 0.000E+00    1       13        0        0
     13  6.250E+01 0.000E+00 0.000E+00 0.000E+00 0.000E+00    1       14        0        0
     14  6.250E+01 0.000E+00 0.000E+00 0.000E+00 0.000E+00    1       15        0        0
     15  6.250E+01 0.000E+00 0.000E+00 0.000E+00 0.000E+00    1       16        0        0
     16  6.250E+01 0.000E+00 0.000E+00 0.000E+00 0.000E+00    1       17        0        0
     17  6.250E+01 0.000E+00 0.000E+00 0.000E+00 0.000E+00    1       18        0        0
     18  6.250E+01 0.000E+00 0.000E+00 0.000E+00 0.000E+00    1       19        0        0
     19  6.250E+01 0.000E+00 0.000E+00 0.000E+00 0.000E+00    1       20        0        0
     20  6.250E+01 0.000E+00 0.000E+00 0.000E+00 0.000E+00    1       21        0        0
     21  6.250E+01 0.000E+00 0.000E+00 0.000E+00 0.000E+00    1       22        0        0
     22  6.250E+01 0.000E+00 0.000E+00 0.000E+00 0.000E+00    1       23        0        0
     23  6.250E+01 0.000E+00 0.000E+00 0.000E+00 0.000E+00    1       24        0        0
     24  6.250E+01 0.000E+00 0.000E+00 0.000E+00 0.000E+00    1       25        0        0
     25  6.250E+01 0.000E+00 0.000E+00 0.000E+00 0.000E+00    1       26        0        0
     26  6.250E+01 0.000E+00 0.000E+00 0.000E+00 0.000E+00    1       27        0        0
     27  6.250E+01 0.000E+00 0.000E+00 0.000E+00 0.000E+00    1       28        0        0
     28  6.250E+01 0.000E+00 0.000E+00 0.000E+00 0.000E+00    1       29        0        0
     29  6.250E+01 0.000E+00 0.000E+00 0.000E+00 0.000E+00    1       30        0        0
     30  6.250E+01 0.000E+00 0.000E+00 0.000E+00 0.000E+00    1       31        0        0
     31  6.250E+01 0.000E+00 0.000E+00 0.000E+00 0.000E+00    1       32        0        0
     32  6.250E+01 0.000E+00 0.000E+00 0.000E+00 0.000E+00    1       33        0        0
     33  6.250E+01 0.000E+00 0.000E+00 0.000E+00 0.000E+00    1       34        0        0
     34  6.250E+01 0.000E+00 0.000E+00 0.000E+00 0.000E+00    1       35        0        0
     35  6.250E+01 0.000E+00 0.000E+00 0.000E+00 0.000E+00    1       36        0        0
     36  6.250E+01 0.000E+00 0.000E+00 0.000E+00 0.000E+00    1       37        0        0
     37  6.250E+01 0.000E+00 0.000E+00 0.000E+00 0.000E+00    1       38        0        0
     38  6.250E+01 0.000E+00 0.000E+00 0.000E+00 0.000E+00    1       39        0        0
     39  6.250E+01 0.000E+00 0.000E+00 0.000E+00 0.000E+00    1       40        0        0
     40  6.250E+01 0.000E+00 0.000E+00 0.000E+00 0.000E+00    1       41        0        0
     41  6.250E+01 0.000E+00 0.000E+00 0.000E+00 0.000E+00    1       42        0        0
     42  6.250E+01 0.000E+00 0.000E+00 0.000E+00 0.000E+00    1       43        0        0
     43  6.250E+01 0.000E+00 0.000E+00 0.000E+00 0.000E+00    1       44        0        0
     44  6.250E+01 0.000E+00 0.000E+00 0.000E+00 0.000E+00    1       45        0        0
     45  6.250E+01 0.000E+00 0.000E+00 0.000E+00 0.000E+00    1       46        0        0
     46  6.250E+01 0.000E+00 0.000E+00 0.000E+00 0.000E+00    1       47        0        0
     47  6.250E+01 0.000E+00 0.000E+00 0.000E+00 0.000E+00    1       48        0        0
     48  6.250E+01 0.000E+00 0.000E+00 0.000E+00 0.000E+00    1       49        0        0
     49  6.250E+01 0.000E+00 0.000E+00 0.000E+00 0.000E+00    1       50        0        0
     50  6.250E+01 0.000E+00 0.000E+00 0.000E+00 0.000E+00    1       51        0        0
     51  6.250E+01 0.000E+00 0.000E+00 0.000E+00 0.000E+00    1       52        0        0
     52  6.250E+01 0.000E+00 0.000E+00 0.000E+00 0.000E+00    1       53        0        0
     53  6.250E+01 0.000E+00 0.000E+00 0.000E+00 0.000E+00    1       54        0        0
     54  6.250E+01 0.000E+00 0.000E+00 0.000E+00 0.000E+00    1       55        0        0
     55  6.250E+01 0.000E+00 0.000E+00 0.000E+00 0.000E+00    1       56        0        0
     56  6.250E+01 0.000E+00 0.000E+00 0.000E+00 0.000E+00    1       57        0        0
     57  6.250E+01 0.000E+00 0.000E+00 0.000E+00 0.000E+00    1       58        0        0
     58  6.250E+01 0.000E+00 0.000E+00 0.000E+00 0.000E+00    1       59        0        0
     59  6.250E+01 0.000E+00 0.000E+00 0.000E+00 0.000E+00    1       60        0        0
     60  6.250E+01 0.000E+00 0.000E+00 0.000E+00 0.000E+00    1       61        0        0
     61  6.250E+01 0.000E+00 0.000E+00 0.000E+00 0.000E+00    1       62        0        0
     62  6.250E+01 0.000E+00 0.000E+00 0.000E+00 0.000E+00    1       63        0        0
     63  6.250E+01 0.000E+00 0.000E+00 0.000E+00 0.000E+00    1       64        0        0
     64  6.250E+01 0.000E+00 0.000E+00 0.000E+00 0.000E+00    1       65        0        0
     65  6.250E+01 0.000E+00 0.000E+00 0.000E+00 0.000E+00    1       66        0        0
     66  6.250E+01 0.000E+00 0.000E+00 0.000E+00 0.000E+00    1       67        0        0
     67  6.250E+01 0.000E+00 0.000E+00 0.000E+00 0.000E+00    1       68        0        0
     68  6.250E+01 0.000E+00 0.000E+00 0.000E+00 0.000E+00    1       69        0        0
     69  6.250E+01 0.000E+00 0.000E+00 0.000E+00 0.000E+00    1       70        0        0
     70  6.250E+01 0.000E+00 0.000E+00 0.000E+00 0.000E+00    1       71        0        0
     71  6.250E+01 0.000E+00 0.000E+00 0.000E+00 0.000E+00    1       72        0        0
     72  6.250E+01 0.000E+00 0.000E+00 0.000E+00 0.000E+00    1       73        0        0
     73  6.250E+01 0.000E+00 0.000E+00 0.000E+00 0.000E+00    1       74        0        0
     74  6.250E+01 0.000E+00 0.000E+00 0.000E+00 0.000E+00    1       75        0        0
     75  6.250E+01 0.000E+00 0.000E+00 0.000E+00 0.000E+00    1       76        0        0
     76  6.250E+01 0.000E+00 0.000E+00 0.000E+00 0.000E+00    1       77        0        0
     77  6.250E+01 0.000E+00 0.000E+00 0.000E+00 0.000E+00    1       78        0        0
     78  6.250E+01 0.000E+00 0.000E+00 0.000E+00 0.000E+00    1       79        0        0
     79  6.250E+01 0.000E+00 0.000E+00 0.000E+00 0.000E+00    1       80        0        0
     80  6.250E+01 0.000E+00 0.000E+00 0.000E+00 0.000E+00    1       81        0        0
     81  6.250E+01 0.000E+00 0.000E+00 0.000E+00 0.000E+00    1       82        0        0
     82  6.250E+01 0.000E+00 0.000E+00 0.000E+00 0.000E+00    1       83        0        0
     83  6.250E+01 0.000E+00 0.000E+00 0.000E+00 0.000E+00    1       84        0        0
     84  6.250E+01 0.000E+00 0.000E+00 0.000E+00 0.000E+00    1       85        0        0
     85  6.250E+01 0.000E+00 0.000E+00 0.000E+00 0.000E+00    1       86        0        0
     86  6.250E+01 0.000E+00 0.000E+00 0.000E+00 0.000E+00    1       87        0        0
     87  6.250E+01 0.000E+00 0.000E+00 0.000E+00 0.000E+00    1       88        0        0
     88  6.250E+01 0.000E+00 0.000E+00 0.000E+00 0.000E+00    1       89        0        0
     89  6.250E+01 0.000E+00 0.000E+00 0.000E+00 0.000E+00    1       90        0        0
     90  6.250E+01 0.000E+00 0.000E+00 0.000E+00 0.000E+00    1       91        0        0
     91  6.250E+01 0.000E+00 0.000E+00 0.000E+00 0.000E+00    1       92        0        0
     92  6.250E+01 0.000E+00 0.000E+00 0.000E+00 0.000E+00    1       93        0        0
     93  6.250E+01 0.000E+00 0.000E+00 0.000E+00 0.000E+00    1       94        0        0
     94  6.250E+01 0.000E+00 0.000E+00 0.000E+00 0.000E+00    1       95        0        0
     95  6.250E+01 0.000E+00 0.000E+00 0.000E+00 0.000E+00    1       96        0        0
     96  6.250E+01 0.000E+00 0.000E+00 0.000E+00 0.000E+00    1       97        0        0
     97  6.250E+01 0.000E+00 0.000E+00 0.000E+00 0.000E+00    1       98        0        0
     98  6.250E+01 0.000E+00 0.000E+00 0.000E+00 0.000E+00    1       99        0        0
     99  6.250E+01 0.000E+00 0.000E+00 0.000E+00 0.000E+00    1      100        0        0
    100  6.250E+01 0.000E+00 0.000E+00 0.000E+00 0.000E+00    1      101        0        0
    101  6.250E+01 0.000E+00 0.000E+00 0.000E+00 0.000E+00    1      102        0        0
    102  6.250E+01 0.000E+00 0.000E+00 0.000E+00 0.000E+00    1      103        0        0
    103  6.250E+01 0.000E+00 0.000E+00 0.000E+00 0.000E+00    1      104        0        0
    104  6.250E+01 0.000E+00 0.000E+00 0.000E+00 0.000E+00    1      105        0        0
    105  6.250E+01 0.000E+00 0.000E+00 0.000E+00 0.000E+00    1      106        0        0
    106  6.250E+01 0.000E+00 0.000E+00 0.000E+00 0.000E+00    1      107        0        0
    107  6.250E+01 0.000E+00 0.000E+00 0.000E+00 0.000E+00    1      108        0        0
    108  6.250E+01 0.000E+00 0.000E+00 0.000E+00 0.000E+00    1      109        0        0
    109  6.250E+01 0.000E+00 0.000E+00 0.000E+00 0.000E+00    1      110        0        0
    110  6.250E+01 0.000E+00 0.000E+00 0.000E+00 0.000E+00    1      111        0        0
    111  6.250E+01 0.000E+00 0.000E+00 0.000E+00 0.000E+00    1      112        0        0
    112  6.250E+01 0.000E+00 0.000E+00 0.000E+00 0.000E+00    1      113        0        0
    113  6.250E+01 0.000E+00 0.000E+00 0.000E+00 0.000E+00    1      114        0        0
    114  6.250E+01 0.000E+00 0.000E+00 0.000E+00 0.000E+00    1      115        0        0
    115  6.250E+01 0.000E+00 0.000E+00 0.000E+00 0.000E+00    1      116        0        0
    116  6.250E+01 0.000E+00 0.000E+00 0.000E+00 0.000E+00    1      117        0        0
    117  6.250E+01 0.000E+00 0.000E+00 0.000E+00 0.000E+00    1      118        0        0
    118  6.250E+01 0.000E+00 0.000E+00 0.000E+00 0.000E+00    1      119        0        0
    119  6.250E+01 0.000E+00 0.000E+00 0.000E+00 0.000E+00    1      120        0        0
    120  6.250E+01 0.000E+00 0.000E+00 0.000E+00 0.000E+00    1      121        0        0
    121  6.250E+01 0.000E+00 0.000E+00 0.000E+00 0.000E+00    1      122        0        0
    122  6.250E+01 0.000E+00 0.000E+00 0.000E+00 0.000E+00    1      123        0        0
    123  6.250E+01 0.000E+00 0.000E+00 0.000E+00 0.000E+00    1      124        0        0
    124  6.250E+01 0.000E+00 0.000E+00 0.000E+00 0.000E+00    1      125        0        0
    125  6.250E+01 0.000E+00 0.000E+00 0.000E+00 0.000E+00    1      126        0        0
    126  6.250E+01 0.000E+00 0.000E+00 0.000E+00 0.000E+00    1      127        0        0
    127  6.250E+01 0.000E+00 0.000E+00 0.000E+00 0.000E+00    1      128        0        0
    128  6.250E+01 0.000E+00 0.000E+00 0.000E+00 0.000E+00    1      129        0        0
    129  6.250E+01 0.000E+00 0.000E+00 0.000E+00 0.000E+00    1      130        0        0
    130  6.250E+01 0.000E+00 0.000E+00 0.000E+00 0.000E+00    1      131        0        0
    131  6.250E+01 0.000E+00 0.000E+00 0.000E+00 0.000E+00    1      132        0        0
    132  6.250E+01 0.000E+00 0.000E+00 0.000E+00 0.000E+00    1      133        0        0
    133  6.250E+01 0.000E+00 0.000E+00 0.000E+00 0.000E+00    1      134        0        0
    134  6.250E+01 0.000E+00 0.000E+00 0.000E+00 0.000E+00    1      135        0        0
    135  6.250E+01 0.000E+00 0.000E+00 0.000E+00 0.000E+00    1      136        0        0
    136  6.250E+01 0.000E+00 0.000E+00 0.000E+00 0.000E+00    1      137        0        0
    137  6.250E+01 0.000E+00 0.000E+00 0.000E+00 0.000E+00    1      138        0        0
    138  6.250E+01 0.000E+00 0.000E+00 0.000E+00 0.000E+00    1      139        0        0
    139  6.250E+01 0.000E+00 0.000E+00 0.000E+00 0.000E+00    1      140        0        0
    140  6.250E+01 0.000E+00 0.000E+00 0.000E+00 0.000E+00    1      141        0        0
    141  6.250E+01 0.000E+00 0.000E+00 0.000E+00 0.000E+00    1      142        0        0
    142  6.250E+01 0.000E+00 0.000E+00 0.000E+00 0.000E+00    1      143        0        0
    143  6.250E+01 0.000E+00 0.000E+00 0.000E+00 0.000E+00    1      144        0        0
    144  6.250E+01 0.000E+00 0.000E+00 0.000E+00 0.000E+00    1      145        0        0
    145  6.250E+01 0.000E+00 0.000E+00 0.000E+00 0.000E+00    1      146        0        0
    146  6.250E+01 0.000E+00 0.000E+00 0.000E+00 0.000E+00    1      147        0        0
    147  6.250E+01 0.000E+00 0.000E+00 0.000E+00 0.000E+00    1      148        0        0
    148  6.250E+01 0.000E+00 0.000E+00 0.000E+00 0.000E+00    1      149        0        0
    149  6.250E+01 0.000E+00 0.000E+00 0.000E+00 0.000E+00    1      150        0        0
    150  6.250E+01 0.000E+00 0.000E+00 0.000E+00 0.000E+00    1      151        0        0
    151  6.250E+01 0.000E+00 0.000E+00 0.000E+00 0.000E+00    1      152        0        0
    152  6.250E+01 0.000E+00 0.000E+00 0.000E+00 0.000E+00    1      153        0        0
    153  6.250E+01 0.000E+00 0.000E+00 0.000E+00 0.000E+00    1      154        0        0
    154  6.250E+01 0.000E+00 0.000E+00 0.000E+00 0.000E+00    1      155        0        0
    155  6.250E+01 0.000E+00 0.000E+00 0.000E+00 0.000E+00    1      156        0        0
    156  6.250E+01 0.000E+00 0.000E+00 0.000E+00 0.000E+00    1      157        0        0
    157  6.250E+01 0.000E+00 0.000E+00 0.000E+00 0.000E+00    1      158        0        0
    158  6.250E+01 0.000E+00 0.000E+00 0.000E+00 0.000E+00    1      159        0        0
    159  6.250E+01 0.000E+00 0.000E+00 0.000E+00 0.000E+00    1      160        0        0
    160  6.250E+01 0.000E+00 0.000E+00 0.000E+00 0.000E+00    1      161        0        0


         STREAMBED PROPERTIES AND STREAM DIMENSIONS

 SEGMENT     WIDTH OF STREAM     DEPTH OF STREAM    STREAM ROUGHNESS
    No.     UPPER     LOWER     UPPER     LOWER     CHANNEL      BANK

     1    5.000E+00 5.000E+00                      1.000E-01
     2    5.000E+00 5.000E+00                      1.000E-01
     3    5.000E+00 5.000E+00                      1.000E-01
     4    5.000E+00 5.000E+00                      1.000E-01
     5    5.000E+00 5.000E+00                      1.000E-01
     6    5.000E+00 5.000E+00                      1.000E-01
     7    5.000E+00 5.000E+00                      1.000E-01
     8    5.000E+00 5.000E+00                      1.000E-01
     9    5.000E+00 5.000E+00                      1.000E-01
    10    5.000E+00 5.000E+00                      1.000E-01
    11    5.000E+00 5.000E+00                      1.000E-01
    12    5.000E+00 5.000E+00                      1.000E-01
    13    5.000E+00 5.000E+00                      1.000E-01
    14    5.000E+00 5.000E+00                      1.000E-01
    15    5.000E+00 5.000E+00                      1.000E-01
    16    5.000E+00 5.000E+00                      1.000E-01
    17    5.000E+00 5.000E+00                      1.000E-01
    18    5.000E+00 5.000E+00                      1.000E-01
    19    5.000E+00 5.000E+00                      1.000E-01
    20    5.000E+00 5.000E+00                      1.000E-01
    21    5.000E+00 5.000E+00                      1.000E-01
    22    5.000E+00 5.000E+00                      1.000E-01
    23    5.000E+00 5.000E+00                      1.000E-01
    24    5.000E+00 5.000E+00                      1.000E-01
    25    5.000E+00 5.000E+00                      1.000E-01
    26    5.000E+00 5.000E+00                      1.000E-01
    27    5.000E+00 5.000E+00                      1.000E-01
    28    5.000E+00 5.000E+00                      1.000E-01
    29    5.000E+00 5.000E+00                      1.000E-01
    30    5.000E+00 5.000E+00                      1.000E-01
    31    5.000E+00 5.000E+00                      1.000E-01
    32    5.000E+00 5.000E+00                      1.000E-01
    33    5.000E+00 5.000E+00                      1.000E-01
    34    5.000E+00 5.000E+00                      1.000E-01
    35    5.000E+00 5.000E+00                      1.000E-01
    36    5.000E+00 5.000E+00                      1.000E-01
    37    5.000E+00 5.000E+00                      1.000E-01
    38    5.000E+00 5.000E+00                      1.000E-01
    39    5.000E+00 5.000E+00                      1.000E-01
    40    5.000E+00 5.000E+00                      1.000E-01
    41    5.000E+00 5.000E+00                      1.000E-01
    42    5.000E+00 5.000E+00                      1.000E-01
    43    5.000E+00 5.000E+00                      1.000E-01
    44    5.000E+00 5.000E+00                      1.000E-01
    45    5.000E+00 5.000E+00                      1.000E-01
    46    5.000E+00 5.000E+00                      1.000E-01
    47    5.000E+00 5.000E+00                      1.000E-01
    48    5.000E+00 5.000E+00                      1.000E-01
    49    5.000E+00 5.000E+00                      1.000E-01
    50    5.000E+00 5.000E+00                      1.000E-01
    51    5.000E+00 5.000E+00                      1.000E-01
    52    5.000E+00 5.000E+00                      1.000E-01
    53    5.000E+00 5.000E+00                      1.000E-01
    54    5.000E+00 5.000E+00                      1.000E-01
    55    5.000E+00 5.000E+00                      1.000E-01
    56    5.000E+00 5.000E+00                      1.000E-01
    57    5.000E+00 5.000E+00                      1.000E-01
    58    5.000E+00 5.000E+00                      1.000E-01
    59    5.000E+00 5.000E+00                      1.000E-01
    60    5.000E+00 5.000E+00                      1.000E-01
    61    5.000E+00 5.000E+00                      1.000E-01
    62    5.000E+00 5.000E+00                      1.000E-01
    63    5.000E+00 5.000E+00                      1.000E-01
    64    5.000E+00 5.000E+00                      1.000E-01
    65    5.000E+00 5.000E+00                      1.000E-01
    66    5.000E+00 5.000E+00                      1.000E-01
    67    5.000E+00 5.000E+00                      1.000E-01
    68    5.000E+00 5.000E+00                      1.000E-01
    69    5.000E+00 5.000E+00                      1.000E-01
    70    5.000E+00 5.000E+00                      1.000E-01
    71    5.000E+00 5.000E+00                      1.000E-01
    72    5.000E+00 5.000E+00                      1.000E-01
    73    5.000E+00 5.000E+00                      1.000E-01
    74    5.000E+00 5.000E+00                      1.000E-01
    75    5.000E+00 5.000E+00                      1.000E-01
    76    5.000E+00 5.000E+00                      1.000E-01
    77    5.000E+00 5.000E+00                      1.000E-01
    78    5.000E+00 5.000E+00                      1.000E-01
    79    5.000E+00 5.000E+00                      1.000E-01
    80    5.000E+00 5.000E+00                      1.000E-01
    81    5.000E+00 5.000E+00                      1.000E-01
    82    5.000E+00 5.000E+00                      1.000E-01
    83    5.000E+00 5.000E+00                      1.000E-01
    84    5.000E+00 5.000E+00                      1.000E-01
    85    5.000E+00 5.000E+00                      1.000E-01
    86    5.000E+00 5.000E+00                      1.000E-01
    87    5.000E+00 5.000E+00                      1.000E-01
    88    5.000E+00 5.000E+00                      1.000E-01
    89    5.000E+00 5.000E+00                      1.000E-01
    90    5.000E+00 5.000E+00                      1.000E-01
    91    5.000E+00 5.000E+00                      1.000E-01
    92    5.000E+00 5.000E+00                      1.000E-01
    93    5.000E+00 5.000E+00                      1.000E-01
    94    5.000E+00 5.000E+00                      1.000E-01
    95    5.000E+00 5.000E+00                      1.000E-01
    96    5.000E+00 5.000E+00                      1.000E-01
    97    5.000E+00 5.000E+00                      1.000E-01
    98    5.000E+00 5.000E+00                      1.000E-01
    99    5.000E+00 5.000E+00                      1.000E-01
   100    5.000E+00 5.000E+00                      1.000E-01
   101    5.000E+00 5.000E+00                      1.000E-01
   102    5.000E+00 5.000E+00                      1.000E-01
   103    5.000E+00 5.000E+00                      1.000E-01
   104    5.000E+00 5.000E+00                      1.000E-01
   105    5.000E+00 5.000E+00                      1.000E-01
   106    5.000E+00 5.000E+00                      1.000E-01
   107    5.000E+00 5.000E+00                      1.000E-01
   108    5.000E+00 5.000E+00                      1.000E-01
   109    5.000E+00 5.000E+00                      1.000E-01
   110    5.000E+00 5.000E+00                      1.000E-01
   111    5.000E+00 5.000E+00                      1.000E-01
   112    5.000E+00 5.000E+00                      1.000E-01
   113    5.000E+00 5.000E+00                      1.000E-01
   114    5.000E+00 5.000E+00                      1.000E-01
   115    5.000E+00 5.000E+00                      1.000E-01
   116    5.000E+00 5.000E+00                      1.000E-01
   117    5.000E+00 5.000E+00                      1.000E-01
   118    5.000E+00 5.000E+00                      1.000E-01
   119    5.000E+00 5.000E+00                      1.000E-01
   120    5.000E+00 5.000E+00                      1.000E-01
   121    5.000E+00 5.000E+00                      1.000E-01
   122    5.000E+00 5.000E+00                      1.000E-01
   123    5.000E+00 5.000E+00                      1.000E-01
   124    5.000E+00 5.000E+00                      1.000E-01
   125    5.000E+00 5.000E+00                      1.000E-01
   126    5.000E+00 5.000E+00                      1.000E-01
   127    5.000E+00 5.000E+00                      1.000E-01
   128    5.000E+00 5.000E+00                      1.000E-01
   129    5.000E+00 5.000E+00                      1.000E-01
   130    5.000E+00 5.000E+00                      1.000E-01
   131    5.000E+00 5.000E+00                      1.000E-01
   132    5.000E+00 5.000E+00                      1.000E-01
   133    5.000E+00 5.000E+00                      1.000E-01
   134    5.000E+00 5.000E+00                      1.000E-01
   135    5.000E+00 5.000E+00                      1.000E-01
   136    5.000E+00 5.000E+00                      1.000E-01
   137    5.000E+00 5.000E+00                      1.000E-01
   138    5.000E+00 5.000E+00                      1.000E-01
   139    5.000E+00 5.000E+00                      1.000E-01
   140    5.000E+00 5.000E+00                      1.000E-01
   141    5.000E+00 5.000E+00                      1.000E-01
   142    5.000E+00 5.000E+00                      1.000E-01
   143    5.000E+00 5.000E+00                      1.000E-01
   144    5.000E+00 5.000E+00                      1.000E-01
   145    5.000E+00 5.000E+00                      1.000E-01
   146    5.000E+00 5.000E+00                      1.000E-01
   147    5.000E+00 5.000E+00                      1.000E-01
   148    5.000E+00 5.000E+00                      1.000E-01
   149    5.000E+00 5.000E+00                      1.000E-01
   150    5.000E+00 5.000E+00                      1.000E-01
   151    5.000E+00 5.000E+00                      1.000E-01
   152    5.000E+00 5.000E+00                      1.000E-01
   153    5.000E+00 5.000E+00                      1.000E-01
   154    5.000E+00 5.000E+00                      1.000E-01
   155    5.000E+00 5.000E+00                      1.000E-01
   156    5.000E+00 5.000E+00                      1.000E-01
   157    5.000E+00 5.000E+00                      1.000E-01
   158    5.000E+00 5.000E+00                      1.000E-01
   159    5.000E+00 5.000E+00                      1.000E-01
   160    5.000E+00 5.000E+00                      1.000E-01



 
 SOLVING FOR HEAD 


 OUTER ITERATION SUMMARY
 -----------------------
 BT: Backtracking; LA: Linear Acceleration; UR: Under-relaxation

    Outer-Iteration  Inner-Iteration    Maximum Head Change  Maximum Head Change
        Number           Count               Value              Location
LA         1                8               0.34103                  4092           GWF-node number
LA         2                5               0.78907E-02              1388           GWF-node number
LA         3                2               0.29948E-03              1425           GWF-node number
LA         4                1              -0.36378E-04              4431           GWF-node number


     4 CALLS TO SPARSE MATRIX SOLVER PACKAGE  IN FLOW TIME STEP   1 STRESS PERIOD  25

 TOTAL OF       4OUTER ITERATIONS
  MAXIMUM CHANGE FOR EACH ITERATION:
   MAX. CHANGE        NODE  MAX. CHANGE        NODE  MAX. CHANGE        NODE  MAX. CHANGE        NODE  MAX. CHANGE        NODE
 ------------------------------------------------------------------------------------------------------------------------------------
   0.34103    ,       4092  0.78907E-02,       1388  0.29948E-03,       1425 -0.36378E-04,       4431

 OUTPUT CONTROL FOR STRESS PERIOD       25   TIME STEP        1
    SAVE HEAD FOR ALL LAYERS
    SAVE BUDGET
 UBDSV1U SAVING "         STORAGE" ON UNIT  50 AT TIME STEP      1, STRESS PERIOD     25
 UBDSV2U SAVING "   CONSTANT HEAD" ON UNIT  50 AT TIME STEP      1, STRESS PERIOD     25
 UBDSV1U SAVING "   FLOW JA FACE " ON UNIT  50 AT TIME STEP      1, STRESS PERIOD     25
 UBDSV4U SAVING "           WELLS" ON UNIT  50 AT TIME STEP      1, STRESS PERIOD     25
 UBDSV4U SAVING " HEAD DEP BOUNDS" ON UNIT  50 AT TIME STEP      1, STRESS PERIOD     25
 UBDSV3U SAVING "        RECHARGE" ON UNIT  50 AT TIME STEP      1, STRESS PERIOD     25
 UBDSV2U SAVING "  STREAM LEAKAGE" ON UNIT  50 AT TIME STEP      1, STRESS PERIOD     25




 HEAD WILL BE SAVED ON UNIT   51 AT END OF TIME STEP   1, STRESS PERIOD   25
1
  VOLUMETRIC BUDGET FOR ENTIRE MODEL AT END OF TIME STEP       1 IN STRESS PERIOD      25
  ---------------------------------------------------------------------------------------

     CUMULATIVE VOLUMES      L**3       RATES FOR THIS TIME STEP      L**3/T
     ------------------                 ------------------------

           IN:                                      IN:
           ---                                      ---
             STORAGE =      656903.9883               STORAGE =           0.0000
       CONSTANT HEAD =           0.0000         CONSTANT HEAD =           0.0000
               WELLS =           0.0000                 WELLS =           0.0000
     HEAD DEP BOUNDS =      278203.4491       HEAD DEP BOUNDS =         362.7838
            RECHARGE =     1932926.9697              RECHARGE =        4004.6985
      STREAM LEAKAGE =      153284.9983        STREAM LEAKAGE =         216.3240

            TOTAL IN =     3021319.4054              TOTAL IN =        4583.8063

          OUT:                                     OUT:
          ----                                     ----
             STORAGE =      664498.5934               STORAGE =        2724.6311
       CONSTANT HEAD =           0.0000         CONSTANT HEAD =           0.0000
               WELLS =     1688905.1196                 WELLS =        1138.4089
     HEAD DEP BOUNDS =      351821.5683       HEAD DEP BOUNDS =         524.6802
            RECHARGE =           0.0000              RECHARGE =           0.0000
      STREAM LEAKAGE =      316101.6191        STREAM LEAKAGE =         196.0377

           TOTAL OUT =     3021326.9004             TOTAL OUT =        4583.7579

            IN - OUT =          -7.4950              IN - OUT =       4.8406E-02

 PERCENT DISCREPANCY =          -0.00     PERCENT DISCREPANCY =           0.00






          TIME SUMMARY AT END OF TIME STEP         1 IN STRESS PERIOD        25
                    SECONDS     MINUTES      HOURS       DAYS        YEARS
                    -----------------------------------------------------------
   TIME STEP LENGTH 2.67840E+06  44640.      744.00      31.000     8.48734E-02
 STRESS PERIOD TIME 2.67840E+06  44640.      744.00      31.000     8.48734E-02
         TOTAL TIME 6.32448E+07 1.05408E+06  17568.      732.00      2.0041    
1

 Run end date and time (yyyy/mm/dd hh:mm:ss): 2021/03/30 10:40:35
 Elapsed run time:  0.266 Seconds

